/*---------------------------------------------------------------------------*\
| =========                 |                                                 |
| \\      /  F ield         | OpenFOAM: The Open Source CFD Toolbox           |
|  \\    /   O peration     | Version:  2306                                  |
|   \\  /    A nd           | Website:  www.openfoam.com                      |
|    \\/     M anipulation  |                                                 |
\*---------------------------------------------------------------------------*/
Build  : _fbf00d6b-20230626 OPENFOAM=2306 version=2306
Arch   : "LSB;label=32;scalar=64"
Exec   : fireRADFoam_MaCFP
Date   : Mar 12 2024
Time   : 19:28:02
Host   : pop-os
PID    : 172675
I/O    : uncollated
Case   : /home/rafay/Desktop/Study/Radiative_Heat_Transfer/Local_copy_RHT2324/01_Projects/02_Rafay/Case_1_q1D_SolidAngle/new_case3/th_6-ph_12/tau_0.1/res_1
nProcs : 1
trapFpe: Floating point exception trapping enabled (FOAM_SIGFPE).
fileModificationChecking : Monitoring run-time modified files using timeStampMaster (fileModificationSkew 5, maxFileModificationPolls 20)
allowSystemOperations : Allowing user-supplied system call operations

// * * * * * * * * * * * * * * * * * * * * * * * * * * * * * * * * * * * * * //
Create time

Create mesh for time = 0


PIMPLE: no residual control data found. Calculations will employ 10 corrector loops

Reading thermophysical properties

Selecting thermodynamics package 
{
    type            hePsiThermo;
    mixture         singleStepReactingMixture;
    transport       sutherland;
    thermo          janaf;
    energy          sensibleEnthalpy;
    equationOfState perfectGas;
    specie          specie;
}

Selecting chemistryReader foamChemistryReader
    elements not defined in "/home/rafay/Desktop/Study/Radiative_Heat_Transfer/Local_copy_RHT2324/01_Projects/02_Rafay/Case_1_q1D_SolidAngle/new_case3/th_6-ph_12/tau_0.1/res_1/constant/reactions"
Fuel heat of combustion :47168962.4726
stoichiometric air-fuel ratio :14.6914056505
stoichiometric oxygen-fuel ratio :3.42181919285
Maximum products mass concentrations:
    H2O: 0.0818486943001
    CO2: 0.199950099979
    N2: 0.718201205721
Creating component thermo properties:
    multi-component carrier - 6 species
    no liquid components
    no solid components
Creating field rho


Reading field U

Reading/calculating face flux field phi

Selecting radiationModel fvDOM
Selecting absorptionEmissionModel constantAbsorptionEmission
Selecting scatterModel none
Selecting sootModel none
fvDOM : Allocated 288 rays with average orientation:
	I0 : dAve : 	(0.000387488209079 0.00591192763451 0.0163624617374) : omega : 	0.0175372336349 : d : 	(0.0169275754541 0.25826489366 0.965925826289)
	I1 : dAve : 	(0.00115583459655 0.00581077291359 0.0163624617374) : omega : 	0.0175372336349 : d : 	(0.050493090853 0.253845909725 0.965925826289)
	I2 : dAve : 	(0.00190440433361 0.00561019425706 0.0163624617374) : omega : 	0.0175372336349 : d : 	(0.083194655468 0.245083551895 0.965925826289)
	I3 : dAve : 	(0.00262038918453 0.00531362362136 0.0163624617374) : omega : 	0.0175372336349 : d : 	(0.114472736462 0.232127746542 0.965925826289)
	I4 : dAve : 	(0.00329153844998 0.00492613541228 0.0163624617374) : omega : 	0.0175372336349 : d : 	(0.143792157198 0.215200171088 0.965925826289)
	I5 : dAve : 	(0.00390636857998 0.00445435966052 0.0163624617374) : omega : 	0.0175372336349 : d : 	(0.170651254257 0.194590461042 0.965925826289)
	I6 : dAve : 	(0.00445435966052 0.00390636857998 0.0163624617374) : omega : 	0.0175372336349 : d : 	(0.194590461042 0.170651254257 0.965925826289)
	I7 : dAve : 	(0.00492613541228 0.00329153844998 0.0163624617374) : omega : 	0.0175372336349 : d : 	(0.215200171088 0.143792157198 0.965925826289)
	I8 : dAve : 	(0.00531362362136 0.00262038918453 0.0163624617374) : omega : 	0.0175372336349 : d : 	(0.232127746542 0.114472736462 0.965925826289)
	I9 : dAve : 	(0.00561019425706 0.00190440433361 0.0163624617374) : omega : 	0.0175372336349 : d : 	(0.245083551895 0.083194655468 0.965925826289)
	I10 : dAve : 	(0.00581077291359 0.00115583459655 0.0163624617374) : omega : 	0.0175372336349 : d : 	(0.253845909725 0.050493090853 0.965925826289)
	I11 : dAve : 	(0.00591192763451 0.000387488209079 0.0163624617374) : omega : 	0.0175372336349 : d : 	(0.25826489366 0.0169275754541 0.965925826289)
	I12 : dAve : 	(0.00591192763451 -0.000387488209079 0.0163624617374) : omega : 	0.0175372336349 : d : 	(0.25826489366 -0.0169275754541 0.965925826289)
	I13 : dAve : 	(0.00581077291359 -0.00115583459655 0.0163624617374) : omega : 	0.0175372336349 : d : 	(0.253845909725 -0.050493090853 0.965925826289)
	I14 : dAve : 	(0.00561019425706 -0.00190440433361 0.0163624617374) : omega : 	0.0175372336349 : d : 	(0.245083551895 -0.083194655468 0.965925826289)
	I15 : dAve : 	(0.00531362362136 -0.00262038918453 0.0163624617374) : omega : 	0.0175372336349 : d : 	(0.232127746542 -0.114472736462 0.965925826289)
	I16 : dAve : 	(0.00492613541228 -0.00329153844998 0.0163624617374) : omega : 	0.0175372336349 : d : 	(0.215200171088 -0.143792157198 0.965925826289)
	I17 : dAve : 	(0.00445435966052 -0.00390636857998 0.0163624617374) : omega : 	0.0175372336349 : d : 	(0.194590461042 -0.170651254257 0.965925826289)
	I18 : dAve : 	(0.00390636857998 -0.00445435966052 0.0163624617374) : omega : 	0.0175372336349 : d : 	(0.170651254257 -0.194590461042 0.965925826289)
	I19 : dAve : 	(0.00329153844998 -0.00492613541228 0.0163624617374) : omega : 	0.0175372336349 : d : 	(0.143792157198 -0.215200171088 0.965925826289)
	I20 : dAve : 	(0.00262038918453 -0.00531362362136 0.0163624617374) : omega : 	0.0175372336349 : d : 	(0.114472736462 -0.232127746542 0.965925826289)
	I21 : dAve : 	(0.00190440433361 -0.00561019425706 0.0163624617374) : omega : 	0.0175372336349 : d : 	(0.083194655468 -0.245083551895 0.965925826289)
	I22 : dAve : 	(0.00115583459655 -0.00581077291359 0.0163624617374) : omega : 	0.0175372336349 : d : 	(0.050493090853 -0.253845909725 0.965925826289)
	I23 : dAve : 	(0.000387488209079 -0.00591192763451 0.0163624617374) : omega : 	0.0175372336349 : d : 	(0.0169275754541 -0.25826489366 0.965925826289)
	I24 : dAve : 	(-0.000387488209079 -0.00591192763451 0.0163624617374) : omega : 	0.0175372336349 : d : 	(-0.0169275754541 -0.25826489366 0.965925826289)
	I25 : dAve : 	(-0.00115583459655 -0.00581077291359 0.0163624617374) : omega : 	0.0175372336349 : d : 	(-0.050493090853 -0.253845909725 0.965925826289)
	I26 : dAve : 	(-0.00190440433361 -0.00561019425706 0.0163624617374) : omega : 	0.0175372336349 : d : 	(-0.083194655468 -0.245083551895 0.965925826289)
	I27 : dAve : 	(-0.00262038918453 -0.00531362362136 0.0163624617374) : omega : 	0.0175372336349 : d : 	(-0.114472736462 -0.232127746542 0.965925826289)
	I28 : dAve : 	(-0.00329153844998 -0.00492613541228 0.0163624617374) : omega : 	0.0175372336349 : d : 	(-0.143792157198 -0.215200171088 0.965925826289)
	I29 : dAve : 	(-0.00390636857998 -0.00445435966052 0.0163624617374) : omega : 	0.0175372336349 : d : 	(-0.170651254257 -0.194590461042 0.965925826289)
	I30 : dAve : 	(-0.00445435966052 -0.00390636857998 0.0163624617374) : omega : 	0.0175372336349 : d : 	(-0.194590461042 -0.170651254257 0.965925826289)
	I31 : dAve : 	(-0.00492613541228 -0.00329153844998 0.0163624617374) : omega : 	0.0175372336349 : d : 	(-0.215200171088 -0.143792157198 0.965925826289)
	I32 : dAve : 	(-0.00531362362136 -0.00262038918453 0.0163624617374) : omega : 	0.0175372336349 : d : 	(-0.232127746542 -0.114472736462 0.965925826289)
	I33 : dAve : 	(-0.00561019425706 -0.00190440433361 0.0163624617374) : omega : 	0.0175372336349 : d : 	(-0.245083551895 -0.083194655468 0.965925826289)
	I34 : dAve : 	(-0.00581077291359 -0.00115583459655 0.0163624617374) : omega : 	0.0175372336349 : d : 	(-0.253845909725 -0.050493090853 0.965925826289)
	I35 : dAve : 	(-0.00591192763451 -0.000387488209079 0.0163624617374) : omega : 	0.0175372336349 : d : 	(-0.25826489366 -0.0169275754541 0.965925826289)
	I36 : dAve : 	(-0.00591192763451 0.000387488209079 0.0163624617374) : omega : 	0.0175372336349 : d : 	(-0.25826489366 0.0169275754541 0.965925826289)
	I37 : dAve : 	(-0.00581077291359 0.00115583459655 0.0163624617374) : omega : 	0.0175372336349 : d : 	(-0.253845909725 0.050493090853 0.965925826289)
	I38 : dAve : 	(-0.00561019425706 0.00190440433361 0.0163624617374) : omega : 	0.0175372336349 : d : 	(-0.245083551895 0.083194655468 0.965925826289)
	I39 : dAve : 	(-0.00531362362136 0.00262038918453 0.0163624617374) : omega : 	0.0175372336349 : d : 	(-0.232127746542 0.114472736462 0.965925826289)
	I40 : dAve : 	(-0.00492613541228 0.00329153844998 0.0163624617374) : omega : 	0.0175372336349 : d : 	(-0.215200171088 0.143792157198 0.965925826289)
	I41 : dAve : 	(-0.00445435966052 0.00390636857998 0.0163624617374) : omega : 	0.0175372336349 : d : 	(-0.194590461042 0.170651254257 0.965925826289)
	I42 : dAve : 	(-0.00390636857998 0.00445435966052 0.0163624617374) : omega : 	0.0175372336349 : d : 	(-0.170651254257 0.194590461042 0.965925826289)
	I43 : dAve : 	(-0.00329153844998 0.00492613541228 0.0163624617374) : omega : 	0.0175372336349 : d : 	(-0.143792157198 0.215200171088 0.965925826289)
	I44 : dAve : 	(-0.00262038918453 0.00531362362136 0.0163624617374) : omega : 	0.0175372336349 : d : 	(-0.114472736462 0.232127746542 0.965925826289)
	I45 : dAve : 	(-0.00190440433361 0.00561019425706 0.0163624617374) : omega : 	0.0175372336349 : d : 	(-0.083194655468 0.245083551895 0.965925826289)
	I46 : dAve : 	(-0.00115583459655 0.00581077291359 0.0163624617374) : omega : 	0.0175372336349 : d : 	(-0.050493090853 0.253845909725 0.965925826289)
	I47 : dAve : 	(-0.000387488209079 0.00591192763451 0.0163624617374) : omega : 	0.0175372336349 : d : 	(-0.0169275754541 0.25826489366 0.965925826289)
	I48 : dAve : 	(0.00223973005487 0.034171677215 0.0327249234749) : omega : 	0.0479126133149 : d : 	(0.0462469961895 0.70559281129 0.707106781187)
	I49 : dAve : 	(0.00668086776241 0.0335869903436 0.0327249234749) : omega : 	0.0479126133149 : d : 	(0.137949689641 0.693519922661 0.707106781187)
	I50 : dAve : 	(0.0110076939702 0.0324276207555 0.0327249234749) : omega : 	0.0479126133149 : d : 	(0.227292025657 0.669580715876 0.707106781187)
	I51 : dAve : 	(0.0151461754823 0.0307134055855 0.0327249234749) : omega : 	0.0479126133149 : d : 	(0.312745332096 0.634184797399 0.707106781187)
	I52 : dAve : 	(0.0190255017326 0.0284736755306 0.0327249234749) : omega : 	0.0479126133149 : d : 	(0.392847479194 0.58793780121 0.707106781187)
	I53 : dAve : 	(0.0225792963734 0.025746752993 0.0327249234749) : omega : 	0.0479126133149 : d : 	(0.466227897004 0.531631026234 0.707106781187)
	I54 : dAve : 	(0.025746752993 0.0225792963734 0.0327249234749) : omega : 	0.0479126133149 : d : 	(0.531631026234 0.466227897004 0.707106781187)
	I55 : dAve : 	(0.0284736755306 0.0190255017326 0.0327249234749) : omega : 	0.0479126133149 : d : 	(0.58793780121 0.392847479194 0.707106781187)
	I56 : dAve : 	(0.0307134055855 0.0151461754823 0.0327249234749) : omega : 	0.0479126133149 : d : 	(0.634184797399 0.312745332096 0.707106781187)
	I57 : dAve : 	(0.0324276207555 0.0110076939702 0.0327249234749) : omega : 	0.0479126133149 : d : 	(0.669580715876 0.227292025657 0.707106781187)
	I58 : dAve : 	(0.0335869903436 0.00668086776241 0.0327249234749) : omega : 	0.0479126133149 : d : 	(0.693519922661 0.137949689641 0.707106781187)
	I59 : dAve : 	(0.034171677215 0.00223973005487 0.0327249234749) : omega : 	0.0479126133149 : d : 	(0.70559281129 0.0462469961895 0.707106781187)
	I60 : dAve : 	(0.034171677215 -0.00223973005487 0.0327249234749) : omega : 	0.0479126133149 : d : 	(0.70559281129 -0.0462469961895 0.707106781187)
	I61 : dAve : 	(0.0335869903436 -0.00668086776241 0.0327249234749) : omega : 	0.0479126133149 : d : 	(0.693519922661 -0.137949689641 0.707106781187)
	I62 : dAve : 	(0.0324276207555 -0.0110076939702 0.0327249234749) : omega : 	0.0479126133149 : d : 	(0.669580715876 -0.227292025657 0.707106781187)
	I63 : dAve : 	(0.0307134055855 -0.0151461754823 0.0327249234749) : omega : 	0.0479126133149 : d : 	(0.634184797399 -0.312745332096 0.707106781187)
	I64 : dAve : 	(0.0284736755306 -0.0190255017326 0.0327249234749) : omega : 	0.0479126133149 : d : 	(0.58793780121 -0.392847479194 0.707106781187)
	I65 : dAve : 	(0.025746752993 -0.0225792963734 0.0327249234749) : omega : 	0.0479126133149 : d : 	(0.531631026234 -0.466227897004 0.707106781187)
	I66 : dAve : 	(0.0225792963734 -0.025746752993 0.0327249234749) : omega : 	0.0479126133149 : d : 	(0.466227897004 -0.531631026234 0.707106781187)
	I67 : dAve : 	(0.0190255017326 -0.0284736755306 0.0327249234749) : omega : 	0.0479126133149 : d : 	(0.392847479194 -0.58793780121 0.707106781187)
	I68 : dAve : 	(0.0151461754823 -0.0307134055855 0.0327249234749) : omega : 	0.0479126133149 : d : 	(0.312745332096 -0.634184797399 0.707106781187)
	I69 : dAve : 	(0.0110076939702 -0.0324276207555 0.0327249234749) : omega : 	0.0479126133149 : d : 	(0.227292025657 -0.669580715876 0.707106781187)
	I70 : dAve : 	(0.00668086776241 -0.0335869903436 0.0327249234749) : omega : 	0.0479126133149 : d : 	(0.137949689641 -0.693519922661 0.707106781187)
	I71 : dAve : 	(0.00223973005487 -0.034171677215 0.0327249234749) : omega : 	0.0479126133149 : d : 	(0.0462469961895 -0.70559281129 0.707106781187)
	I72 : dAve : 	(-0.00223973005487 -0.034171677215 0.0327249234749) : omega : 	0.0479126133149 : d : 	(-0.0462469961895 -0.70559281129 0.707106781187)
	I73 : dAve : 	(-0.00668086776241 -0.0335869903436 0.0327249234749) : omega : 	0.0479126133149 : d : 	(-0.137949689641 -0.693519922661 0.707106781187)
	I74 : dAve : 	(-0.0110076939702 -0.0324276207555 0.0327249234749) : omega : 	0.0479126133149 : d : 	(-0.227292025657 -0.669580715876 0.707106781187)
	I75 : dAve : 	(-0.0151461754823 -0.0307134055855 0.0327249234749) : omega : 	0.0479126133149 : d : 	(-0.312745332096 -0.634184797399 0.707106781187)
	I76 : dAve : 	(-0.0190255017326 -0.0284736755306 0.0327249234749) : omega : 	0.0479126133149 : d : 	(-0.392847479194 -0.58793780121 0.707106781187)
	I77 : dAve : 	(-0.0225792963734 -0.025746752993 0.0327249234749) : omega : 	0.0479126133149 : d : 	(-0.466227897004 -0.531631026234 0.707106781187)
	I78 : dAve : 	(-0.025746752993 -0.0225792963734 0.0327249234749) : omega : 	0.0479126133149 : d : 	(-0.531631026234 -0.466227897004 0.707106781187)
	I79 : dAve : 	(-0.0284736755306 -0.0190255017326 0.0327249234749) : omega : 	0.0479126133149 : d : 	(-0.58793780121 -0.392847479194 0.707106781187)
	I80 : dAve : 	(-0.0307134055855 -0.0151461754823 0.0327249234749) : omega : 	0.0479126133149 : d : 	(-0.634184797399 -0.312745332096 0.707106781187)
	I81 : dAve : 	(-0.0324276207555 -0.0110076939702 0.0327249234749) : omega : 	0.0479126133149 : d : 	(-0.669580715876 -0.227292025657 0.707106781187)
	I82 : dAve : 	(-0.0335869903436 -0.00668086776241 0.0327249234749) : omega : 	0.0479126133149 : d : 	(-0.693519922661 -0.137949689641 0.707106781187)
	I83 : dAve : 	(-0.034171677215 -0.00223973005487 0.0327249234749) : omega : 	0.0479126133149 : d : 	(-0.70559281129 -0.0462469961895 0.707106781187)
	I84 : dAve : 	(-0.034171677215 0.00223973005487 0.0327249234749) : omega : 	0.0479126133149 : d : 	(-0.70559281129 0.0462469961895 0.707106781187)
	I85 : dAve : 	(-0.0335869903436 0.00668086776241 0.0327249234749) : omega : 	0.0479126133149 : d : 	(-0.693519922661 0.137949689641 0.707106781187)
	I86 : dAve : 	(-0.0324276207555 0.0110076939702 0.0327249234749) : omega : 	0.0479126133149 : d : 	(-0.669580715876 0.227292025657 0.707106781187)
	I87 : dAve : 	(-0.0307134055855 0.0151461754823 0.0327249234749) : omega : 	0.0479126133149 : d : 	(-0.634184797399 0.312745332096 0.707106781187)
	I88 : dAve : 	(-0.0284736755306 0.0190255017326 0.0327249234749) : omega : 	0.0479126133149 : d : 	(-0.58793780121 0.392847479194 0.707106781187)
	I89 : dAve : 	(-0.025746752993 0.0225792963734 0.0327249234749) : omega : 	0.0479126133149 : d : 	(-0.531631026234 0.466227897004 0.707106781187)
	I90 : dAve : 	(-0.0225792963734 0.025746752993 0.0327249234749) : omega : 	0.0479126133149 : d : 	(-0.466227897004 0.531631026234 0.707106781187)
	I91 : dAve : 	(-0.0190255017326 0.0284736755306 0.0327249234749) : omega : 	0.0479126133149 : d : 	(-0.392847479194 0.58793780121 0.707106781187)
	I92 : dAve : 	(-0.0151461754823 0.0307134055855 0.0327249234749) : omega : 	0.0479126133149 : d : 	(-0.312745332096 0.634184797399 0.707106781187)
	I93 : dAve : 	(-0.0110076939702 0.0324276207555 0.0327249234749) : omega : 	0.0479126133149 : d : 	(-0.227292025657 0.669580715876 0.707106781187)
	I94 : dAve : 	(-0.00668086776241 0.0335869903436 0.0327249234749) : omega : 	0.0479126133149 : d : 	(-0.137949689641 0.693519922661 0.707106781187)
	I95 : dAve : 	(-0.00223973005487 0.034171677215 0.0327249234749) : omega : 	0.0479126133149 : d : 	(-0.0462469961895 0.70559281129 0.707106781187)
	I96 : dAve : 	(0.00409197190067 0.0624314267954 0.0163624617374) : omega : 	0.0654498469498 : d : 	(0.0631745716435 0.963857704949 0.258819045103)
	I97 : dAve : 	(0.0122059009283 0.0613632077737 0.0163624617374) : omega : 	0.0654498469498 : d : 	(0.188442780494 0.947365832386 0.258819045103)
	I98 : dAve : 	(0.0201109836069 0.0592450472539 0.0163624617374) : omega : 	0.0654498469498 : d : 	(0.310486681125 0.914664267771 0.258819045103)
	I99 : dAve : 	(0.0276719617802 0.0561131875497 0.0163624617374) : omega : 	0.0654498469498 : d : 	(0.427218068558 0.866312543941 0.258819045103)
	I100 : dAve : 	(0.0347594650153 0.052021215649 0.0163624617374) : omega : 	0.0654498469498 : d : 	(0.536639636391 0.803137972298 0.258819045103)
	I101 : dAve : 	(0.0412522241668 0.0470391463256 0.0163624617374) : omega : 	0.0654498469498 : d : 	(0.636879151261 0.726221487276 0.258819045103)
	I102 : dAve : 	(0.0470391463256 0.0412522241668 0.0163624617374) : omega : 	0.0654498469498 : d : 	(0.726221487276 0.636879151261 0.258819045103)
	I103 : dAve : 	(0.052021215649 0.0347594650153 0.0163624617374) : omega : 	0.0654498469498 : d : 	(0.803137972298 0.536639636391 0.258819045103)
	I104 : dAve : 	(0.0561131875497 0.0276719617802 0.0163624617374) : omega : 	0.0654498469498 : d : 	(0.866312543941 0.427218068558 0.258819045103)
	I105 : dAve : 	(0.0592450472539 0.0201109836069 0.0163624617374) : omega : 	0.0654498469498 : d : 	(0.914664267771 0.310486681125 0.258819045103)
	I106 : dAve : 	(0.0613632077737 0.0122059009283 0.0163624617374) : omega : 	0.0654498469498 : d : 	(0.947365832386 0.188442780494 0.258819045103)
	I107 : dAve : 	(0.0624314267954 0.00409197190067 0.0163624617374) : omega : 	0.0654498469498 : d : 	(0.963857704949 0.0631745716435 0.258819045103)
	I108 : dAve : 	(0.0624314267954 -0.00409197190067 0.0163624617374) : omega : 	0.0654498469498 : d : 	(0.963857704949 -0.0631745716435 0.258819045103)
	I109 : dAve : 	(0.0613632077737 -0.0122059009283 0.0163624617374) : omega : 	0.0654498469498 : d : 	(0.947365832386 -0.188442780494 0.258819045103)
	I110 : dAve : 	(0.0592450472539 -0.0201109836069 0.0163624617374) : omega : 	0.0654498469498 : d : 	(0.914664267771 -0.310486681125 0.258819045103)
	I111 : dAve : 	(0.0561131875497 -0.0276719617802 0.0163624617374) : omega : 	0.0654498469498 : d : 	(0.866312543941 -0.427218068558 0.258819045103)
	I112 : dAve : 	(0.052021215649 -0.0347594650153 0.0163624617374) : omega : 	0.0654498469498 : d : 	(0.803137972298 -0.536639636391 0.258819045103)
	I113 : dAve : 	(0.0470391463256 -0.0412522241668 0.0163624617374) : omega : 	0.0654498469498 : d : 	(0.726221487276 -0.636879151261 0.258819045103)
	I114 : dAve : 	(0.0412522241668 -0.0470391463256 0.0163624617374) : omega : 	0.0654498469498 : d : 	(0.636879151261 -0.726221487276 0.258819045103)
	I115 : dAve : 	(0.0347594650153 -0.052021215649 0.0163624617374) : omega : 	0.0654498469498 : d : 	(0.536639636391 -0.803137972298 0.258819045103)
	I116 : dAve : 	(0.0276719617802 -0.0561131875497 0.0163624617374) : omega : 	0.0654498469498 : d : 	(0.427218068558 -0.866312543941 0.258819045103)
	I117 : dAve : 	(0.0201109836069 -0.0592450472539 0.0163624617374) : omega : 	0.0654498469498 : d : 	(0.310486681125 -0.914664267771 0.258819045103)
	I118 : dAve : 	(0.0122059009283 -0.0613632077737 0.0163624617374) : omega : 	0.0654498469498 : d : 	(0.188442780494 -0.947365832386 0.258819045103)
	I119 : dAve : 	(0.00409197190067 -0.0624314267954 0.0163624617374) : omega : 	0.0654498469498 : d : 	(0.0631745716435 -0.963857704949 0.258819045103)
	I120 : dAve : 	(-0.00409197190067 -0.0624314267954 0.0163624617374) : omega : 	0.0654498469498 : d : 	(-0.0631745716435 -0.963857704949 0.258819045103)
	I121 : dAve : 	(-0.0122059009283 -0.0613632077737 0.0163624617374) : omega : 	0.0654498469498 : d : 	(-0.188442780494 -0.947365832386 0.258819045103)
	I122 : dAve : 	(-0.0201109836069 -0.0592450472539 0.0163624617374) : omega : 	0.0654498469498 : d : 	(-0.310486681125 -0.914664267771 0.258819045103)
	I123 : dAve : 	(-0.0276719617802 -0.0561131875497 0.0163624617374) : omega : 	0.0654498469498 : d : 	(-0.427218068558 -0.866312543941 0.258819045103)
	I124 : dAve : 	(-0.0347594650153 -0.052021215649 0.0163624617374) : omega : 	0.0654498469498 : d : 	(-0.536639636391 -0.803137972298 0.258819045103)
	I125 : dAve : 	(-0.0412522241668 -0.0470391463256 0.0163624617374) : omega : 	0.0654498469498 : d : 	(-0.636879151261 -0.726221487276 0.258819045103)
	I126 : dAve : 	(-0.0470391463256 -0.0412522241668 0.0163624617374) : omega : 	0.0654498469498 : d : 	(-0.726221487276 -0.636879151261 0.258819045103)
	I127 : dAve : 	(-0.052021215649 -0.0347594650153 0.0163624617374) : omega : 	0.0654498469498 : d : 	(-0.803137972298 -0.536639636391 0.258819045103)
	I128 : dAve : 	(-0.0561131875497 -0.0276719617802 0.0163624617374) : omega : 	0.0654498469498 : d : 	(-0.866312543941 -0.427218068558 0.258819045103)
	I129 : dAve : 	(-0.0592450472539 -0.0201109836069 0.0163624617374) : omega : 	0.0654498469498 : d : 	(-0.914664267771 -0.310486681125 0.258819045103)
	I130 : dAve : 	(-0.0613632077737 -0.0122059009283 0.0163624617374) : omega : 	0.0654498469498 : d : 	(-0.947365832386 -0.188442780494 0.258819045103)
	I131 : dAve : 	(-0.0624314267954 -0.00409197190067 0.0163624617374) : omega : 	0.0654498469498 : d : 	(-0.963857704949 -0.0631745716435 0.258819045103)
	I132 : dAve : 	(-0.0624314267954 0.00409197190067 0.0163624617374) : omega : 	0.0654498469498 : d : 	(-0.963857704949 0.0631745716435 0.258819045103)
	I133 : dAve : 	(-0.0613632077737 0.0122059009283 0.0163624617374) : omega : 	0.0654498469498 : d : 	(-0.947365832386 0.188442780494 0.258819045103)
	I134 : dAve : 	(-0.0592450472539 0.0201109836069 0.0163624617374) : omega : 	0.0654498469498 : d : 	(-0.914664267771 0.310486681125 0.258819045103)
	I135 : dAve : 	(-0.0561131875497 0.0276719617802 0.0163624617374) : omega : 	0.0654498469498 : d : 	(-0.866312543941 0.427218068558 0.258819045103)
	I136 : dAve : 	(-0.052021215649 0.0347594650153 0.0163624617374) : omega : 	0.0654498469498 : d : 	(-0.803137972298 0.536639636391 0.258819045103)
	I137 : dAve : 	(-0.0470391463256 0.0412522241668 0.0163624617374) : omega : 	0.0654498469498 : d : 	(-0.726221487276 0.636879151261 0.258819045103)
	I138 : dAve : 	(-0.0412522241668 0.0470391463256 0.0163624617374) : omega : 	0.0654498469498 : d : 	(-0.636879151261 0.726221487276 0.258819045103)
	I139 : dAve : 	(-0.0347594650153 0.052021215649 0.0163624617374) : omega : 	0.0654498469498 : d : 	(-0.536639636391 0.803137972298 0.258819045103)
	I140 : dAve : 	(-0.0276719617802 0.0561131875497 0.0163624617374) : omega : 	0.0654498469498 : d : 	(-0.427218068558 0.866312543941 0.258819045103)
	I141 : dAve : 	(-0.0201109836069 0.0592450472539 0.0163624617374) : omega : 	0.0654498469498 : d : 	(-0.310486681125 0.914664267771 0.258819045103)
	I142 : dAve : 	(-0.0122059009283 0.0613632077737 0.0163624617374) : omega : 	0.0654498469498 : d : 	(-0.188442780494 0.947365832386 0.258819045103)
	I143 : dAve : 	(-0.00409197190067 0.0624314267954 0.0163624617374) : omega : 	0.0654498469498 : d : 	(-0.0631745716435 0.963857704949 0.258819045103)
	I144 : dAve : 	(0.00409197190067 0.0624314267954 -0.0163624617374) : omega : 	0.0654498469498 : d : 	(0.0631745716435 0.963857704949 -0.258819045103)
	I145 : dAve : 	(0.0122059009283 0.0613632077737 -0.0163624617374) : omega : 	0.0654498469498 : d : 	(0.188442780494 0.947365832386 -0.258819045103)
	I146 : dAve : 	(0.0201109836069 0.0592450472539 -0.0163624617374) : omega : 	0.0654498469498 : d : 	(0.310486681125 0.914664267771 -0.258819045103)
	I147 : dAve : 	(0.0276719617802 0.0561131875497 -0.0163624617374) : omega : 	0.0654498469498 : d : 	(0.427218068558 0.866312543941 -0.258819045103)
	I148 : dAve : 	(0.0347594650153 0.052021215649 -0.0163624617374) : omega : 	0.0654498469498 : d : 	(0.536639636391 0.803137972298 -0.258819045103)
	I149 : dAve : 	(0.0412522241668 0.0470391463256 -0.0163624617374) : omega : 	0.0654498469498 : d : 	(0.636879151261 0.726221487276 -0.258819045103)
	I150 : dAve : 	(0.0470391463256 0.0412522241668 -0.0163624617374) : omega : 	0.0654498469498 : d : 	(0.726221487276 0.636879151261 -0.258819045103)
	I151 : dAve : 	(0.052021215649 0.0347594650153 -0.0163624617374) : omega : 	0.0654498469498 : d : 	(0.803137972298 0.536639636391 -0.258819045103)
	I152 : dAve : 	(0.0561131875497 0.0276719617802 -0.0163624617374) : omega : 	0.0654498469498 : d : 	(0.866312543941 0.427218068558 -0.258819045103)
	I153 : dAve : 	(0.0592450472539 0.0201109836069 -0.0163624617374) : omega : 	0.0654498469498 : d : 	(0.914664267771 0.310486681125 -0.258819045103)
	I154 : dAve : 	(0.0613632077737 0.0122059009283 -0.0163624617374) : omega : 	0.0654498469498 : d : 	(0.947365832386 0.188442780494 -0.258819045103)
	I155 : dAve : 	(0.0624314267954 0.00409197190067 -0.0163624617374) : omega : 	0.0654498469498 : d : 	(0.963857704949 0.0631745716435 -0.258819045103)
	I156 : dAve : 	(0.0624314267954 -0.00409197190067 -0.0163624617374) : omega : 	0.0654498469498 : d : 	(0.963857704949 -0.0631745716435 -0.258819045103)
	I157 : dAve : 	(0.0613632077737 -0.0122059009283 -0.0163624617374) : omega : 	0.0654498469498 : d : 	(0.947365832386 -0.188442780494 -0.258819045103)
	I158 : dAve : 	(0.0592450472539 -0.0201109836069 -0.0163624617374) : omega : 	0.0654498469498 : d : 	(0.914664267771 -0.310486681125 -0.258819045103)
	I159 : dAve : 	(0.0561131875497 -0.0276719617802 -0.0163624617374) : omega : 	0.0654498469498 : d : 	(0.866312543941 -0.427218068558 -0.258819045103)
	I160 : dAve : 	(0.052021215649 -0.0347594650153 -0.0163624617374) : omega : 	0.0654498469498 : d : 	(0.803137972298 -0.536639636391 -0.258819045103)
	I161 : dAve : 	(0.0470391463256 -0.0412522241668 -0.0163624617374) : omega : 	0.0654498469498 : d : 	(0.726221487276 -0.636879151261 -0.258819045103)
	I162 : dAve : 	(0.0412522241668 -0.0470391463256 -0.0163624617374) : omega : 	0.0654498469498 : d : 	(0.636879151261 -0.726221487276 -0.258819045103)
	I163 : dAve : 	(0.0347594650153 -0.052021215649 -0.0163624617374) : omega : 	0.0654498469498 : d : 	(0.536639636391 -0.803137972298 -0.258819045103)
	I164 : dAve : 	(0.0276719617802 -0.0561131875497 -0.0163624617374) : omega : 	0.0654498469498 : d : 	(0.427218068558 -0.866312543941 -0.258819045103)
	I165 : dAve : 	(0.0201109836069 -0.0592450472539 -0.0163624617374) : omega : 	0.0654498469498 : d : 	(0.310486681125 -0.914664267771 -0.258819045103)
	I166 : dAve : 	(0.0122059009283 -0.0613632077737 -0.0163624617374) : omega : 	0.0654498469498 : d : 	(0.188442780494 -0.947365832386 -0.258819045103)
	I167 : dAve : 	(0.00409197190067 -0.0624314267954 -0.0163624617374) : omega : 	0.0654498469498 : d : 	(0.0631745716435 -0.963857704949 -0.258819045103)
	I168 : dAve : 	(-0.00409197190067 -0.0624314267954 -0.0163624617374) : omega : 	0.0654498469498 : d : 	(-0.0631745716435 -0.963857704949 -0.258819045103)
	I169 : dAve : 	(-0.0122059009283 -0.0613632077737 -0.0163624617374) : omega : 	0.0654498469498 : d : 	(-0.188442780494 -0.947365832386 -0.258819045103)
	I170 : dAve : 	(-0.0201109836069 -0.0592450472539 -0.0163624617374) : omega : 	0.0654498469498 : d : 	(-0.310486681125 -0.914664267771 -0.258819045103)
	I171 : dAve : 	(-0.0276719617802 -0.0561131875497 -0.0163624617374) : omega : 	0.0654498469498 : d : 	(-0.427218068558 -0.866312543941 -0.258819045103)
	I172 : dAve : 	(-0.0347594650153 -0.052021215649 -0.0163624617374) : omega : 	0.0654498469498 : d : 	(-0.536639636391 -0.803137972298 -0.258819045103)
	I173 : dAve : 	(-0.0412522241668 -0.0470391463256 -0.0163624617374) : omega : 	0.0654498469498 : d : 	(-0.636879151261 -0.726221487276 -0.258819045103)
	I174 : dAve : 	(-0.0470391463256 -0.0412522241668 -0.0163624617374) : omega : 	0.0654498469498 : d : 	(-0.726221487276 -0.636879151261 -0.258819045103)
	I175 : dAve : 	(-0.052021215649 -0.0347594650153 -0.0163624617374) : omega : 	0.0654498469498 : d : 	(-0.803137972298 -0.536639636391 -0.258819045103)
	I176 : dAve : 	(-0.0561131875497 -0.0276719617802 -0.0163624617374) : omega : 	0.0654498469498 : d : 	(-0.866312543941 -0.427218068558 -0.258819045103)
	I177 : dAve : 	(-0.0592450472539 -0.0201109836069 -0.0163624617374) : omega : 	0.0654498469498 : d : 	(-0.914664267771 -0.310486681125 -0.258819045103)
	I178 : dAve : 	(-0.0613632077737 -0.0122059009283 -0.0163624617374) : omega : 	0.0654498469498 : d : 	(-0.947365832386 -0.188442780494 -0.258819045103)
	I179 : dAve : 	(-0.0624314267954 -0.00409197190067 -0.0163624617374) : omega : 	0.0654498469498 : d : 	(-0.963857704949 -0.0631745716435 -0.258819045103)
	I180 : dAve : 	(-0.0624314267954 0.00409197190067 -0.0163624617374) : omega : 	0.0654498469498 : d : 	(-0.963857704949 0.0631745716435 -0.258819045103)
	I181 : dAve : 	(-0.0613632077737 0.0122059009283 -0.0163624617374) : omega : 	0.0654498469498 : d : 	(-0.947365832386 0.188442780494 -0.258819045103)
	I182 : dAve : 	(-0.0592450472539 0.0201109836069 -0.0163624617374) : omega : 	0.0654498469498 : d : 	(-0.914664267771 0.310486681125 -0.258819045103)
	I183 : dAve : 	(-0.0561131875497 0.0276719617802 -0.0163624617374) : omega : 	0.0654498469498 : d : 	(-0.866312543941 0.427218068558 -0.258819045103)
	I184 : dAve : 	(-0.052021215649 0.0347594650153 -0.0163624617374) : omega : 	0.0654498469498 : d : 	(-0.803137972298 0.536639636391 -0.258819045103)
	I185 : dAve : 	(-0.0470391463256 0.0412522241668 -0.0163624617374) : omega : 	0.0654498469498 : d : 	(-0.726221487276 0.636879151261 -0.258819045103)
	I186 : dAve : 	(-0.0412522241668 0.0470391463256 -0.0163624617374) : omega : 	0.0654498469498 : d : 	(-0.636879151261 0.726221487276 -0.258819045103)
	I187 : dAve : 	(-0.0347594650153 0.052021215649 -0.0163624617374) : omega : 	0.0654498469498 : d : 	(-0.536639636391 0.803137972298 -0.258819045103)
	I188 : dAve : 	(-0.0276719617802 0.0561131875497 -0.0163624617374) : omega : 	0.0654498469498 : d : 	(-0.427218068558 0.866312543941 -0.258819045103)
	I189 : dAve : 	(-0.0201109836069 0.0592450472539 -0.0163624617374) : omega : 	0.0654498469498 : d : 	(-0.310486681125 0.914664267771 -0.258819045103)
	I190 : dAve : 	(-0.0122059009283 0.0613632077737 -0.0163624617374) : omega : 	0.0654498469498 : d : 	(-0.188442780494 0.947365832386 -0.258819045103)
	I191 : dAve : 	(-0.00409197190067 0.0624314267954 -0.0163624617374) : omega : 	0.0654498469498 : d : 	(-0.0631745716435 0.963857704949 -0.258819045103)
	I192 : dAve : 	(0.00223973005487 0.034171677215 -0.0327249234749) : omega : 	0.0479126133149 : d : 	(0.0462469961895 0.70559281129 -0.707106781187)
	I193 : dAve : 	(0.00668086776241 0.0335869903436 -0.0327249234749) : omega : 	0.0479126133149 : d : 	(0.137949689641 0.693519922661 -0.707106781187)
	I194 : dAve : 	(0.0110076939702 0.0324276207555 -0.0327249234749) : omega : 	0.0479126133149 : d : 	(0.227292025657 0.669580715876 -0.707106781187)
	I195 : dAve : 	(0.0151461754823 0.0307134055855 -0.0327249234749) : omega : 	0.0479126133149 : d : 	(0.312745332096 0.634184797399 -0.707106781187)
	I196 : dAve : 	(0.0190255017326 0.0284736755306 -0.0327249234749) : omega : 	0.0479126133149 : d : 	(0.392847479194 0.58793780121 -0.707106781187)
	I197 : dAve : 	(0.0225792963734 0.025746752993 -0.0327249234749) : omega : 	0.0479126133149 : d : 	(0.466227897004 0.531631026234 -0.707106781187)
	I198 : dAve : 	(0.025746752993 0.0225792963734 -0.0327249234749) : omega : 	0.0479126133149 : d : 	(0.531631026234 0.466227897004 -0.707106781187)
	I199 : dAve : 	(0.0284736755306 0.0190255017326 -0.0327249234749) : omega : 	0.0479126133149 : d : 	(0.58793780121 0.392847479194 -0.707106781187)
	I200 : dAve : 	(0.0307134055855 0.0151461754823 -0.0327249234749) : omega : 	0.0479126133149 : d : 	(0.634184797399 0.312745332096 -0.707106781187)
	I201 : dAve : 	(0.0324276207555 0.0110076939702 -0.0327249234749) : omega : 	0.0479126133149 : d : 	(0.669580715876 0.227292025657 -0.707106781187)
	I202 : dAve : 	(0.0335869903436 0.00668086776241 -0.0327249234749) : omega : 	0.0479126133149 : d : 	(0.693519922661 0.137949689641 -0.707106781187)
	I203 : dAve : 	(0.034171677215 0.00223973005487 -0.0327249234749) : omega : 	0.0479126133149 : d : 	(0.70559281129 0.0462469961895 -0.707106781187)
	I204 : dAve : 	(0.034171677215 -0.00223973005487 -0.0327249234749) : omega : 	0.0479126133149 : d : 	(0.70559281129 -0.0462469961895 -0.707106781187)
	I205 : dAve : 	(0.0335869903436 -0.00668086776241 -0.0327249234749) : omega : 	0.0479126133149 : d : 	(0.693519922661 -0.137949689641 -0.707106781187)
	I206 : dAve : 	(0.0324276207555 -0.0110076939702 -0.0327249234749) : omega : 	0.0479126133149 : d : 	(0.669580715876 -0.227292025657 -0.707106781187)
	I207 : dAve : 	(0.0307134055855 -0.0151461754823 -0.0327249234749) : omega : 	0.0479126133149 : d : 	(0.634184797399 -0.312745332096 -0.707106781187)
	I208 : dAve : 	(0.0284736755306 -0.0190255017326 -0.0327249234749) : omega : 	0.0479126133149 : d : 	(0.58793780121 -0.392847479194 -0.707106781187)
	I209 : dAve : 	(0.025746752993 -0.0225792963734 -0.0327249234749) : omega : 	0.0479126133149 : d : 	(0.531631026234 -0.466227897004 -0.707106781187)
	I210 : dAve : 	(0.0225792963734 -0.025746752993 -0.0327249234749) : omega : 	0.0479126133149 : d : 	(0.466227897004 -0.531631026234 -0.707106781187)
	I211 : dAve : 	(0.0190255017326 -0.0284736755306 -0.0327249234749) : omega : 	0.0479126133149 : d : 	(0.392847479194 -0.58793780121 -0.707106781187)
	I212 : dAve : 	(0.0151461754823 -0.0307134055855 -0.0327249234749) : omega : 	0.0479126133149 : d : 	(0.312745332096 -0.634184797399 -0.707106781187)
	I213 : dAve : 	(0.0110076939702 -0.0324276207555 -0.0327249234749) : omega : 	0.0479126133149 : d : 	(0.227292025657 -0.669580715876 -0.707106781187)
	I214 : dAve : 	(0.00668086776241 -0.0335869903436 -0.0327249234749) : omega : 	0.0479126133149 : d : 	(0.137949689641 -0.693519922661 -0.707106781187)
	I215 : dAve : 	(0.00223973005487 -0.034171677215 -0.0327249234749) : omega : 	0.0479126133149 : d : 	(0.0462469961895 -0.70559281129 -0.707106781187)
	I216 : dAve : 	(-0.00223973005487 -0.034171677215 -0.0327249234749) : omega : 	0.0479126133149 : d : 	(-0.0462469961895 -0.70559281129 -0.707106781187)
	I217 : dAve : 	(-0.00668086776241 -0.0335869903436 -0.0327249234749) : omega : 	0.0479126133149 : d : 	(-0.137949689641 -0.693519922661 -0.707106781187)
	I218 : dAve : 	(-0.0110076939702 -0.0324276207555 -0.0327249234749) : omega : 	0.0479126133149 : d : 	(-0.227292025657 -0.669580715876 -0.707106781187)
	I219 : dAve : 	(-0.0151461754823 -0.0307134055855 -0.0327249234749) : omega : 	0.0479126133149 : d : 	(-0.312745332096 -0.634184797399 -0.707106781187)
	I220 : dAve : 	(-0.0190255017326 -0.0284736755306 -0.0327249234749) : omega : 	0.0479126133149 : d : 	(-0.392847479194 -0.58793780121 -0.707106781187)
	I221 : dAve : 	(-0.0225792963734 -0.025746752993 -0.0327249234749) : omega : 	0.0479126133149 : d : 	(-0.466227897004 -0.531631026234 -0.707106781187)
	I222 : dAve : 	(-0.025746752993 -0.0225792963734 -0.0327249234749) : omega : 	0.0479126133149 : d : 	(-0.531631026234 -0.466227897004 -0.707106781187)
	I223 : dAve : 	(-0.0284736755306 -0.0190255017326 -0.0327249234749) : omega : 	0.0479126133149 : d : 	(-0.58793780121 -0.392847479194 -0.707106781187)
	I224 : dAve : 	(-0.0307134055855 -0.0151461754823 -0.0327249234749) : omega : 	0.0479126133149 : d : 	(-0.634184797399 -0.312745332096 -0.707106781187)
	I225 : dAve : 	(-0.0324276207555 -0.0110076939702 -0.0327249234749) : omega : 	0.0479126133149 : d : 	(-0.669580715876 -0.227292025657 -0.707106781187)
	I226 : dAve : 	(-0.0335869903436 -0.00668086776241 -0.0327249234749) : omega : 	0.0479126133149 : d : 	(-0.693519922661 -0.137949689641 -0.707106781187)
	I227 : dAve : 	(-0.034171677215 -0.00223973005487 -0.0327249234749) : omega : 	0.0479126133149 : d : 	(-0.70559281129 -0.0462469961895 -0.707106781187)
	I228 : dAve : 	(-0.034171677215 0.00223973005487 -0.0327249234749) : omega : 	0.0479126133149 : d : 	(-0.70559281129 0.0462469961895 -0.707106781187)
	I229 : dAve : 	(-0.0335869903436 0.00668086776241 -0.0327249234749) : omega : 	0.0479126133149 : d : 	(-0.693519922661 0.137949689641 -0.707106781187)
	I230 : dAve : 	(-0.0324276207555 0.0110076939702 -0.0327249234749) : omega : 	0.0479126133149 : d : 	(-0.669580715876 0.227292025657 -0.707106781187)
	I231 : dAve : 	(-0.0307134055855 0.0151461754823 -0.0327249234749) : omega : 	0.0479126133149 : d : 	(-0.634184797399 0.312745332096 -0.707106781187)
	I232 : dAve : 	(-0.0284736755306 0.0190255017326 -0.0327249234749) : omega : 	0.0479126133149 : d : 	(-0.58793780121 0.392847479194 -0.707106781187)
	I233 : dAve : 	(-0.025746752993 0.0225792963734 -0.0327249234749) : omega : 	0.0479126133149 : d : 	(-0.531631026234 0.466227897004 -0.707106781187)
	I234 : dAve : 	(-0.0225792963734 0.025746752993 -0.0327249234749) : omega : 	0.0479126133149 : d : 	(-0.466227897004 0.531631026234 -0.707106781187)
	I235 : dAve : 	(-0.0190255017326 0.0284736755306 -0.0327249234749) : omega : 	0.0479126133149 : d : 	(-0.392847479194 0.58793780121 -0.707106781187)
	I236 : dAve : 	(-0.0151461754823 0.0307134055855 -0.0327249234749) : omega : 	0.0479126133149 : d : 	(-0.312745332096 0.634184797399 -0.707106781187)
	I237 : dAve : 	(-0.0110076939702 0.0324276207555 -0.0327249234749) : omega : 	0.0479126133149 : d : 	(-0.227292025657 0.669580715876 -0.707106781187)
	I238 : dAve : 	(-0.00668086776241 0.0335869903436 -0.0327249234749) : omega : 	0.0479126133149 : d : 	(-0.137949689641 0.693519922661 -0.707106781187)
	I239 : dAve : 	(-0.00223973005487 0.034171677215 -0.0327249234749) : omega : 	0.0479126133149 : d : 	(-0.0462469961895 0.70559281129 -0.707106781187)
	I240 : dAve : 	(0.000387488209079 0.00591192763451 -0.0163624617374) : omega : 	0.0175372336349 : d : 	(0.0169275754541 0.25826489366 -0.965925826289)
	I241 : dAve : 	(0.00115583459655 0.00581077291359 -0.0163624617374) : omega : 	0.0175372336349 : d : 	(0.050493090853 0.253845909725 -0.965925826289)
	I242 : dAve : 	(0.00190440433361 0.00561019425706 -0.0163624617374) : omega : 	0.0175372336349 : d : 	(0.083194655468 0.245083551895 -0.965925826289)
	I243 : dAve : 	(0.00262038918453 0.00531362362136 -0.0163624617374) : omega : 	0.0175372336349 : d : 	(0.114472736462 0.232127746542 -0.965925826289)
	I244 : dAve : 	(0.00329153844998 0.00492613541228 -0.0163624617374) : omega : 	0.0175372336349 : d : 	(0.143792157198 0.215200171088 -0.965925826289)
	I245 : dAve : 	(0.00390636857998 0.00445435966052 -0.0163624617374) : omega : 	0.0175372336349 : d : 	(0.170651254257 0.194590461042 -0.965925826289)
	I246 : dAve : 	(0.00445435966052 0.00390636857998 -0.0163624617374) : omega : 	0.0175372336349 : d : 	(0.194590461042 0.170651254257 -0.965925826289)
	I247 : dAve : 	(0.00492613541228 0.00329153844998 -0.0163624617374) : omega : 	0.0175372336349 : d : 	(0.215200171088 0.143792157198 -0.965925826289)
	I248 : dAve : 	(0.00531362362136 0.00262038918453 -0.0163624617374) : omega : 	0.0175372336349 : d : 	(0.232127746542 0.114472736462 -0.965925826289)
	I249 : dAve : 	(0.00561019425706 0.00190440433361 -0.0163624617374) : omega : 	0.0175372336349 : d : 	(0.245083551895 0.083194655468 -0.965925826289)
	I250 : dAve : 	(0.00581077291359 0.00115583459655 -0.0163624617374) : omega : 	0.0175372336349 : d : 	(0.253845909725 0.050493090853 -0.965925826289)
	I251 : dAve : 	(0.00591192763451 0.000387488209079 -0.0163624617374) : omega : 	0.0175372336349 : d : 	(0.25826489366 0.0169275754541 -0.965925826289)
	I252 : dAve : 	(0.00591192763451 -0.000387488209079 -0.0163624617374) : omega : 	0.0175372336349 : d : 	(0.25826489366 -0.0169275754541 -0.965925826289)
	I253 : dAve : 	(0.00581077291359 -0.00115583459655 -0.0163624617374) : omega : 	0.0175372336349 : d : 	(0.253845909725 -0.050493090853 -0.965925826289)
	I254 : dAve : 	(0.00561019425706 -0.00190440433361 -0.0163624617374) : omega : 	0.0175372336349 : d : 	(0.245083551895 -0.083194655468 -0.965925826289)
	I255 : dAve : 	(0.00531362362136 -0.00262038918453 -0.0163624617374) : omega : 	0.0175372336349 : d : 	(0.232127746542 -0.114472736462 -0.965925826289)
	I256 : dAve : 	(0.00492613541228 -0.00329153844998 -0.0163624617374) : omega : 	0.0175372336349 : d : 	(0.215200171088 -0.143792157198 -0.965925826289)
	I257 : dAve : 	(0.00445435966052 -0.00390636857998 -0.0163624617374) : omega : 	0.0175372336349 : d : 	(0.194590461042 -0.170651254257 -0.965925826289)
	I258 : dAve : 	(0.00390636857998 -0.00445435966052 -0.0163624617374) : omega : 	0.0175372336349 : d : 	(0.170651254257 -0.194590461042 -0.965925826289)
	I259 : dAve : 	(0.00329153844998 -0.00492613541228 -0.0163624617374) : omega : 	0.0175372336349 : d : 	(0.143792157198 -0.215200171088 -0.965925826289)
	I260 : dAve : 	(0.00262038918453 -0.00531362362136 -0.0163624617374) : omega : 	0.0175372336349 : d : 	(0.114472736462 -0.232127746542 -0.965925826289)
	I261 : dAve : 	(0.00190440433361 -0.00561019425706 -0.0163624617374) : omega : 	0.0175372336349 : d : 	(0.083194655468 -0.245083551895 -0.965925826289)
	I262 : dAve : 	(0.00115583459655 -0.00581077291359 -0.0163624617374) : omega : 	0.0175372336349 : d : 	(0.050493090853 -0.253845909725 -0.965925826289)
	I263 : dAve : 	(0.000387488209079 -0.00591192763451 -0.0163624617374) : omega : 	0.0175372336349 : d : 	(0.0169275754541 -0.25826489366 -0.965925826289)
	I264 : dAve : 	(-0.000387488209079 -0.00591192763451 -0.0163624617374) : omega : 	0.0175372336349 : d : 	(-0.0169275754541 -0.25826489366 -0.965925826289)
	I265 : dAve : 	(-0.00115583459655 -0.00581077291359 -0.0163624617374) : omega : 	0.0175372336349 : d : 	(-0.050493090853 -0.253845909725 -0.965925826289)
	I266 : dAve : 	(-0.00190440433361 -0.00561019425706 -0.0163624617374) : omega : 	0.0175372336349 : d : 	(-0.083194655468 -0.245083551895 -0.965925826289)
	I267 : dAve : 	(-0.00262038918453 -0.00531362362136 -0.0163624617374) : omega : 	0.0175372336349 : d : 	(-0.114472736462 -0.232127746542 -0.965925826289)
	I268 : dAve : 	(-0.00329153844998 -0.00492613541228 -0.0163624617374) : omega : 	0.0175372336349 : d : 	(-0.143792157198 -0.215200171088 -0.965925826289)
	I269 : dAve : 	(-0.00390636857998 -0.00445435966052 -0.0163624617374) : omega : 	0.0175372336349 : d : 	(-0.170651254257 -0.194590461042 -0.965925826289)
	I270 : dAve : 	(-0.00445435966052 -0.00390636857998 -0.0163624617374) : omega : 	0.0175372336349 : d : 	(-0.194590461042 -0.170651254257 -0.965925826289)
	I271 : dAve : 	(-0.00492613541228 -0.00329153844998 -0.0163624617374) : omega : 	0.0175372336349 : d : 	(-0.215200171088 -0.143792157198 -0.965925826289)
	I272 : dAve : 	(-0.00531362362136 -0.00262038918453 -0.0163624617374) : omega : 	0.0175372336349 : d : 	(-0.232127746542 -0.114472736462 -0.965925826289)
	I273 : dAve : 	(-0.00561019425706 -0.00190440433361 -0.0163624617374) : omega : 	0.0175372336349 : d : 	(-0.245083551895 -0.083194655468 -0.965925826289)
	I274 : dAve : 	(-0.00581077291359 -0.00115583459655 -0.0163624617374) : omega : 	0.0175372336349 : d : 	(-0.253845909725 -0.050493090853 -0.965925826289)
	I275 : dAve : 	(-0.00591192763451 -0.000387488209079 -0.0163624617374) : omega : 	0.0175372336349 : d : 	(-0.25826489366 -0.0169275754541 -0.965925826289)
	I276 : dAve : 	(-0.00591192763451 0.000387488209079 -0.0163624617374) : omega : 	0.0175372336349 : d : 	(-0.25826489366 0.0169275754541 -0.965925826289)
	I277 : dAve : 	(-0.00581077291359 0.00115583459655 -0.0163624617374) : omega : 	0.0175372336349 : d : 	(-0.253845909725 0.050493090853 -0.965925826289)
	I278 : dAve : 	(-0.00561019425706 0.00190440433361 -0.0163624617374) : omega : 	0.0175372336349 : d : 	(-0.245083551895 0.083194655468 -0.965925826289)
	I279 : dAve : 	(-0.00531362362136 0.00262038918453 -0.0163624617374) : omega : 	0.0175372336349 : d : 	(-0.232127746542 0.114472736462 -0.965925826289)
	I280 : dAve : 	(-0.00492613541228 0.00329153844998 -0.0163624617374) : omega : 	0.0175372336349 : d : 	(-0.215200171088 0.143792157198 -0.965925826289)
	I281 : dAve : 	(-0.00445435966052 0.00390636857998 -0.0163624617374) : omega : 	0.0175372336349 : d : 	(-0.194590461042 0.170651254257 -0.965925826289)
	I282 : dAve : 	(-0.00390636857998 0.00445435966052 -0.0163624617374) : omega : 	0.0175372336349 : d : 	(-0.170651254257 0.194590461042 -0.965925826289)
	I283 : dAve : 	(-0.00329153844998 0.00492613541228 -0.0163624617374) : omega : 	0.0175372336349 : d : 	(-0.143792157198 0.215200171088 -0.965925826289)
	I284 : dAve : 	(-0.00262038918453 0.00531362362136 -0.0163624617374) : omega : 	0.0175372336349 : d : 	(-0.114472736462 0.232127746542 -0.965925826289)
	I285 : dAve : 	(-0.00190440433361 0.00561019425706 -0.0163624617374) : omega : 	0.0175372336349 : d : 	(-0.083194655468 0.245083551895 -0.965925826289)
	I286 : dAve : 	(-0.00115583459655 0.00581077291359 -0.0163624617374) : omega : 	0.0175372336349 : d : 	(-0.050493090853 0.253845909725 -0.965925826289)
	I287 : dAve : 	(-0.000387488209079 0.00591192763451 -0.0163624617374) : omega : 	0.0175372336349 : d : 	(-0.0169275754541 0.25826489366 -0.965925826289)
Total omega : 12.5663706144

Courant Number mean: 0 max: 0

Starting time loop

Sampled set:
    data -> csv

Sampled set:
    data -> csv

Sampled surface:
    yNormal -> ensight
        sampledCuttingPlane: yNormal : plane:(0 1 0) (0 0 0) offsets:(0)

Sampled surface:
    zNormal -> ensight
        sampledCuttingPlane: zNormal : plane:(0 0 1) (0 0 0) offsets:(0)

Sampled surface:
    patchAll -> ensight
        sampledPatch: patchAll : patches:(".*WW.*")

deltaT = 1
Time = 1

PIMPLE: iteration 1
Radiation solver iter: 0
DILUPBiCGStab:  Solving for ILambda_0_0, Initial residual = 1, Final residual = 2.88991623757e-62, No Iterations 2
DILUPBiCGStab:  Solving for ILambda_1_0, Initial residual = 1, Final residual = 2.82929713196e-62, No Iterations 2
DILUPBiCGStab:  Solving for ILambda_2_0, Initial residual = 1, Final residual = 2.68156204479e-61, No Iterations 2
DILUPBiCGStab:  Solving for ILambda_3_0, Initial residual = 1, Final residual = 1.05103991816e-61, No Iterations 2
DILUPBiCGStab:  Solving for ILambda_4_0, Initial residual = 1, Final residual = 1.05250151724e-61, No Iterations 2
DILUPBiCGStab:  Solving for ILambda_5_0, Initial residual = 1, Final residual = 5.20042109768e-62, No Iterations 2
DILUPBiCGStab:  Solving for ILambda_6_0, Initial residual = 1, Final residual = 4.50457011091e-62, No Iterations 2
DILUPBiCGStab:  Solving for ILambda_7_0, Initial residual = 1, Final residual = 6.78055300953e-62, No Iterations 2
DILUPBiCGStab:  Solving for ILambda_8_0, Initial residual = 1, Final residual = 1.72715167866e-61, No Iterations 2
DILUPBiCGStab:  Solving for ILambda_9_0, Initial residual = 1, Final residual = 4.99982546862e-62, No Iterations 2
DILUPBiCGStab:  Solving for ILambda_10_0, Initial residual = 1, Final residual = 6.09226493104e-62, No Iterations 2
DILUPBiCGStab:  Solving for ILambda_11_0, Initial residual = 1, Final residual = 4.16258944567e-62, No Iterations 2
DILUPBiCGStab:  Solving for ILambda_12_0, Initial residual = 1, Final residual = 1.15499258731e-61, No Iterations 24
DILUPBiCGStab:  Solving for ILambda_13_0, Initial residual = 1, Final residual = 7.86747572227e-61, No Iterations 33
DILUPBiCGStab:  Solving for ILambda_14_0, Initial residual = 1, Final residual = 6.41039924775e-61, No Iterations 36
DILUPBiCGStab:  Solving for ILambda_15_0, Initial residual = 1, Final residual = 1.9747919345e-61, No Iterations 37
DILUPBiCGStab:  Solving for ILambda_16_0, Initial residual = 1, Final residual = 5.23828760356e-61, No Iterations 38
DILUPBiCGStab:  Solving for ILambda_17_0, Initial residual = 1, Final residual = 5.72783535179e-61, No Iterations 36
DILUPBiCGStab:  Solving for ILambda_18_0, Initial residual = 1, Final residual = 7.88713802316e-61, No Iterations 35
DILUPBiCGStab:  Solving for ILambda_19_0, Initial residual = 1, Final residual = 7.38168311014e-62, No Iterations 37
DILUPBiCGStab:  Solving for ILambda_20_0, Initial residual = 1, Final residual = 8.51596907695e-62, No Iterations 36
DILUPBiCGStab:  Solving for ILambda_21_0, Initial residual = 1, Final residual = 1.77056735667e-61, No Iterations 35
DILUPBiCGStab:  Solving for ILambda_22_0, Initial residual = 1, Final residual = 6.15158959683e-61, No Iterations 30
DILUPBiCGStab:  Solving for ILambda_23_0, Initial residual = 1, Final residual = 1.34283194328e-62, No Iterations 23
DILUPBiCGStab:  Solving for ILambda_24_0, Initial residual = 1, Final residual = 7.2094673245e-61, No Iterations 17
DILUPBiCGStab:  Solving for ILambda_25_0, Initial residual = 1, Final residual = 1.07232968537e-62, No Iterations 17
DILUPBiCGStab:  Solving for ILambda_26_0, Initial residual = 1, Final residual = 1.87266691351e-63, No Iterations 12
DILUPBiCGStab:  Solving for ILambda_27_0, Initial residual = 1, Final residual = 1.38213966061e-61, No Iterations 17
DILUPBiCGStab:  Solving for ILambda_28_0, Initial residual = 1, Final residual = 2.64741413172e-64, No Iterations 16
DILUPBiCGStab:  Solving for ILambda_29_0, Initial residual = 1, Final residual = 1.78247117121e-61, No Iterations 16
DILUPBiCGStab:  Solving for ILambda_30_0, Initial residual = 1, Final residual = 5.98957928397e-63, No Iterations 15
DILUPBiCGStab:  Solving for ILambda_31_0, Initial residual = 1, Final residual = 5.11126554116e-62, No Iterations 17
DILUPBiCGStab:  Solving for ILambda_32_0, Initial residual = 1, Final residual = 9.14985694016e-61, No Iterations 16
DILUPBiCGStab:  Solving for ILambda_33_0, Initial residual = 1, Final residual = 3.10633068352e-63, No Iterations 16
DILUPBiCGStab:  Solving for ILambda_34_0, Initial residual = 1, Final residual = 1.9937387194e-64, No Iterations 14
DILUPBiCGStab:  Solving for ILambda_35_0, Initial residual = 1, Final residual = 9.14956711214e-62, No Iterations 17
DILUPBiCGStab:  Solving for ILambda_36_0, Initial residual = 1, Final residual = 4.5104597099e-62, No Iterations 23
DILUPBiCGStab:  Solving for ILambda_37_0, Initial residual = 1, Final residual = 2.25343979014e-61, No Iterations 30
DILUPBiCGStab:  Solving for ILambda_38_0, Initial residual = 1, Final residual = 4.41662640388e-61, No Iterations 35
DILUPBiCGStab:  Solving for ILambda_39_0, Initial residual = 1, Final residual = 4.24978670226e-62, No Iterations 36
DILUPBiCGStab:  Solving for ILambda_40_0, Initial residual = 1, Final residual = 4.79710082302e-61, No Iterations 36
DILUPBiCGStab:  Solving for ILambda_41_0, Initial residual = 1, Final residual = 7.63198808369e-62, No Iterations 36
DILUPBiCGStab:  Solving for ILambda_42_0, Initial residual = 1, Final residual = 1.33834678473e-61, No Iterations 37
DILUPBiCGStab:  Solving for ILambda_43_0, Initial residual = 1, Final residual = 8.53381950949e-62, No Iterations 38
DILUPBiCGStab:  Solving for ILambda_44_0, Initial residual = 1, Final residual = 5.40368949092e-62, No Iterations 37
DILUPBiCGStab:  Solving for ILambda_45_0, Initial residual = 1, Final residual = 6.28539148086e-61, No Iterations 36
DILUPBiCGStab:  Solving for ILambda_46_0, Initial residual = 1, Final residual = 2.51480206506e-62, No Iterations 33
DILUPBiCGStab:  Solving for ILambda_47_0, Initial residual = 1, Final residual = 8.88290922972e-62, No Iterations 24
DILUPBiCGStab:  Solving for ILambda_48_0, Initial residual = 1, Final residual = 5.41239472129e-75, No Iterations 3
DILUPBiCGStab:  Solving for ILambda_49_0, Initial residual = 1, Final residual = 5.04439366182e-75, No Iterations 3
DILUPBiCGStab:  Solving for ILambda_50_0, Initial residual = 1, Final residual = 3.58400314505e-75, No Iterations 3
DILUPBiCGStab:  Solving for ILambda_51_0, Initial residual = 1, Final residual = 5.7296692416e-75, No Iterations 3
DILUPBiCGStab:  Solving for ILambda_52_0, Initial residual = 1, Final residual = 1.64173702588e-75, No Iterations 3
DILUPBiCGStab:  Solving for ILambda_53_0, Initial residual = 1, Final residual = 1.72102111689e-74, No Iterations 3
DILUPBiCGStab:  Solving for ILambda_54_0, Initial residual = 1, Final residual = 7.31821055e-75, No Iterations 3
DILUPBiCGStab:  Solving for ILambda_55_0, Initial residual = 1, Final residual = 4.40340696136e-75, No Iterations 3
DILUPBiCGStab:  Solving for ILambda_56_0, Initial residual = 1, Final residual = 5.00097523638e-75, No Iterations 3
DILUPBiCGStab:  Solving for ILambda_57_0, Initial residual = 1, Final residual = 4.5660712241e-75, No Iterations 3
DILUPBiCGStab:  Solving for ILambda_58_0, Initial residual = 1, Final residual = 4.54672836104e-75, No Iterations 3
DILUPBiCGStab:  Solving for ILambda_59_0, Initial residual = 1, Final residual = 3.6388579773e-74, No Iterations 3
DILUPBiCGStab:  Solving for ILambda_60_0, Initial residual = 1, Final residual = 4.20051151415e-62, No Iterations 26
DILUPBiCGStab:  Solving for ILambda_61_0, Initial residual = 1, Final residual = 2.32006510571e-61, No Iterations 35
DILUPBiCGStab:  Solving for ILambda_62_0, Initial residual = 1, Final residual = 1.23490890318e-61, No Iterations 38
DILUPBiCGStab:  Solving for ILambda_63_0, Initial residual = 1, Final residual = 2.55119358313e-62, No Iterations 40
DILUPBiCGStab:  Solving for ILambda_64_0, Initial residual = 1, Final residual = 3.23444670568e-61, No Iterations 39
DILUPBiCGStab:  Solving for ILambda_65_0, Initial residual = 1, Final residual = 7.36952701205e-61, No Iterations 40
DILUPBiCGStab:  Solving for ILambda_66_0, Initial residual = 1, Final residual = 8.86331817236e-61, No Iterations 40
DILUPBiCGStab:  Solving for ILambda_67_0, Initial residual = 1, Final residual = 1.78475991784e-61, No Iterations 39
DILUPBiCGStab:  Solving for ILambda_68_0, Initial residual = 1, Final residual = 4.87222791499e-62, No Iterations 40
DILUPBiCGStab:  Solving for ILambda_69_0, Initial residual = 1, Final residual = 6.17149727299e-61, No Iterations 37
DILUPBiCGStab:  Solving for ILambda_70_0, Initial residual = 1, Final residual = 5.05417484392e-62, No Iterations 32
DILUPBiCGStab:  Solving for ILambda_71_0, Initial residual = 1, Final residual = 2.42798453046e-61, No Iterations 25
DILUPBiCGStab:  Solving for ILambda_72_0, Initial residual = 1, Final residual = 1.23019136471e-62, No Iterations 16
DILUPBiCGStab:  Solving for ILambda_73_0, Initial residual = 1, Final residual = 3.22143778248e-62, No Iterations 20
DILUPBiCGStab:  Solving for ILambda_74_0, Initial residual = 1, Final residual = 1.21840748182e-61, No Iterations 16
DILUPBiCGStab:  Solving for ILambda_75_0, Initial residual = 1, Final residual = 9.38618961719e-63, No Iterations 20
DILUPBiCGStab:  Solving for ILambda_76_0, Initial residual = 1, Final residual = 2.48795191781e-62, No Iterations 20
DILUPBiCGStab:  Solving for ILambda_77_0, Initial residual = 1, Final residual = 1.74427683824e-62, No Iterations 20
DILUPBiCGStab:  Solving for ILambda_78_0, Initial residual = 1, Final residual = 1.46812439675e-61, No Iterations 16
DILUPBiCGStab:  Solving for ILambda_79_0, Initial residual = 1, Final residual = 5.07702326525e-62, No Iterations 15
DILUPBiCGStab:  Solving for ILambda_80_0, Initial residual = 1, Final residual = 2.27039724771e-61, No Iterations 17
DILUPBiCGStab:  Solving for ILambda_81_0, Initial residual = 1, Final residual = 1.80221774195e-61, No Iterations 17
DILUPBiCGStab:  Solving for ILambda_82_0, Initial residual = 1, Final residual = 2.84214152679e-61, No Iterations 19
DILUPBiCGStab:  Solving for ILambda_83_0, Initial residual = 1, Final residual = 1.61509398517e-63, No Iterations 17
DILUPBiCGStab:  Solving for ILambda_84_0, Initial residual = 1, Final residual = 8.59108557062e-61, No Iterations 25
DILUPBiCGStab:  Solving for ILambda_85_0, Initial residual = 1, Final residual = 6.3595841608e-61, No Iterations 32
DILUPBiCGStab:  Solving for ILambda_86_0, Initial residual = 1, Final residual = 6.13604646935e-62, No Iterations 39
DILUPBiCGStab:  Solving for ILambda_87_0, Initial residual = 1, Final residual = 3.42262066712e-61, No Iterations 39
DILUPBiCGStab:  Solving for ILambda_88_0, Initial residual = 1, Final residual = 6.1084617721e-62, No Iterations 41
DILUPBiCGStab:  Solving for ILambda_89_0, Initial residual = 1, Final residual = 2.43039466412e-61, No Iterations 40
DILUPBiCGStab:  Solving for ILambda_90_0, Initial residual = 1, Final residual = 8.04244575655e-61, No Iterations 40
DILUPBiCGStab:  Solving for ILambda_91_0, Initial residual = 1, Final residual = 4.54163365958e-62, No Iterations 40
DILUPBiCGStab:  Solving for ILambda_92_0, Initial residual = 1, Final residual = 2.12443224609e-61, No Iterations 39
DILUPBiCGStab:  Solving for ILambda_93_0, Initial residual = 1, Final residual = 2.68843698427e-61, No Iterations 38
DILUPBiCGStab:  Solving for ILambda_94_0, Initial residual = 1, Final residual = 7.62904423156e-61, No Iterations 35
DILUPBiCGStab:  Solving for ILambda_95_0, Initial residual = 1, Final residual = 4.52207450242e-62, No Iterations 26
DILUPBiCGStab:  Solving for ILambda_96_0, Initial residual = 1, Final residual = 1.80397832828e-75, No Iterations 3
DILUPBiCGStab:  Solving for ILambda_97_0, Initial residual = 1, Final residual = 4.18331843774e-61, No Iterations 2
DILUPBiCGStab:  Solving for ILambda_98_0, Initial residual = 1, Final residual = 1.89112474735e-73, No Iterations 3
DILUPBiCGStab:  Solving for ILambda_99_0, Initial residual = 1, Final residual = 8.05543790125e-76, No Iterations 3
DILUPBiCGStab:  Solving for ILambda_100_0, Initial residual = 1, Final residual = 9.04167138059e-75, No Iterations 3
DILUPBiCGStab:  Solving for ILambda_101_0, Initial residual = 1, Final residual = 4.47797206974e-75, No Iterations 3
DILUPBiCGStab:  Solving for ILambda_102_0, Initial residual = 1, Final residual = 8.47252630926e-75, No Iterations 3
DILUPBiCGStab:  Solving for ILambda_103_0, Initial residual = 1, Final residual = 9.15095351159e-75, No Iterations 3
DILUPBiCGStab:  Solving for ILambda_104_0, Initial residual = 1, Final residual = 1.51604686085e-75, No Iterations 3
DILUPBiCGStab:  Solving for ILambda_105_0, Initial residual = 1, Final residual = 5.04737070587e-61, No Iterations 2
DILUPBiCGStab:  Solving for ILambda_106_0, Initial residual = 1, Final residual = 1.413130634e-75, No Iterations 3
DILUPBiCGStab:  Solving for ILambda_107_0, Initial residual = 1, Final residual = 5.31242805522e-75, No Iterations 3
DILUPBiCGStab:  Solving for ILambda_108_0, Initial residual = 1, Final residual = 9.82903871029e-62, No Iterations 27
DILUPBiCGStab:  Solving for ILambda_109_0, Initial residual = 1, Final residual = 4.40216458173e-61, No Iterations 35
DILUPBiCGStab:  Solving for ILambda_110_0, Initial residual = 1, Final residual = 5.6699040133e-61, No Iterations 38
DILUPBiCGStab:  Solving for ILambda_111_0, Initial residual = 1, Final residual = 1.61308988888e-61, No Iterations 42
DILUPBiCGStab:  Solving for ILambda_112_0, Initial residual = 1, Final residual = 2.14674096999e-61, No Iterations 42
DILUPBiCGStab:  Solving for ILambda_113_0, Initial residual = 1, Final residual = 2.72766311255e-61, No Iterations 42
DILUPBiCGStab:  Solving for ILambda_114_0, Initial residual = 1, Final residual = 4.27080048471e-62, No Iterations 42
DILUPBiCGStab:  Solving for ILambda_115_0, Initial residual = 1, Final residual = 4.79250650777e-61, No Iterations 41
DILUPBiCGStab:  Solving for ILambda_116_0, Initial residual = 1, Final residual = 9.52255069501e-63, No Iterations 42
DILUPBiCGStab:  Solving for ILambda_117_0, Initial residual = 1, Final residual = 2.42535813839e-61, No Iterations 38
DILUPBiCGStab:  Solving for ILambda_118_0, Initial residual = 1, Final residual = 3.25630060596e-61, No Iterations 33
DILUPBiCGStab:  Solving for ILambda_119_0, Initial residual = 1, Final residual = 3.19965526227e-62, No Iterations 25
DILUPBiCGStab:  Solving for ILambda_120_0, Initial residual = 1, Final residual = 1.59110378646e-61, No Iterations 19
DILUPBiCGStab:  Solving for ILambda_121_0, Initial residual = 1, Final residual = 4.49154883659e-61, No Iterations 23
DILUPBiCGStab:  Solving for ILambda_122_0, Initial residual = 1, Final residual = 3.37952491488e-61, No Iterations 16
DILUPBiCGStab:  Solving for ILambda_123_0, Initial residual = 1, Final residual = 1.66550481813e-61, No Iterations 21
DILUPBiCGStab:  Solving for ILambda_124_0, Initial residual = 1, Final residual = 2.27708538587e-65, No Iterations 17
DILUPBiCGStab:  Solving for ILambda_125_0, Initial residual = 1, Final residual = 1.05148658262e-61, No Iterations 22
DILUPBiCGStab:  Solving for ILambda_126_0, Initial residual = 1, Final residual = 3.81630152112e-61, No Iterations 20
DILUPBiCGStab:  Solving for ILambda_127_0, Initial residual = 1, Final residual = 9.02846484387e-62, No Iterations 18
DILUPBiCGStab:  Solving for ILambda_128_0, Initial residual = 1, Final residual = 8.75240582559e-61, No Iterations 23
DILUPBiCGStab:  Solving for ILambda_129_0, Initial residual = 1, Final residual = 7.43834126223e-61, No Iterations 20
DILUPBiCGStab:  Solving for ILambda_130_0, Initial residual = 1, Final residual = 2.45193414279e-63, No Iterations 16
DILUPBiCGStab:  Solving for ILambda_131_0, Initial residual = 1, Final residual = 1.21946422248e-61, No Iterations 17
DILUPBiCGStab:  Solving for ILambda_132_0, Initial residual = 1, Final residual = 3.3730960762e-62, No Iterations 25
DILUPBiCGStab:  Solving for ILambda_133_0, Initial residual = 1, Final residual = 2.54321604394e-61, No Iterations 33
DILUPBiCGStab:  Solving for ILambda_134_0, Initial residual = 1, Final residual = 2.31687038934e-61, No Iterations 37
DILUPBiCGStab:  Solving for ILambda_135_0, Initial residual = 1, Final residual = 3.10953926287e-61, No Iterations 41
DILUPBiCGStab:  Solving for ILambda_136_0, Initial residual = 1, Final residual = 8.5463825406e-61, No Iterations 41
DILUPBiCGStab:  Solving for ILambda_137_0, Initial residual = 1, Final residual = 4.27519124549e-61, No Iterations 42
DILUPBiCGStab:  Solving for ILambda_138_0, Initial residual = 1, Final residual = 4.31532656526e-61, No Iterations 41
DILUPBiCGStab:  Solving for ILambda_139_0, Initial residual = 1, Final residual = 5.36620329627e-62, No Iterations 40
DILUPBiCGStab:  Solving for ILambda_140_0, Initial residual = 1, Final residual = 6.92167641108e-61, No Iterations 41
DILUPBiCGStab:  Solving for ILambda_141_0, Initial residual = 1, Final residual = 7.22365172561e-62, No Iterations 39
DILUPBiCGStab:  Solving for ILambda_142_0, Initial residual = 1, Final residual = 2.03556466639e-61, No Iterations 35
DILUPBiCGStab:  Solving for ILambda_143_0, Initial residual = 1, Final residual = 5.23071630322e-62, No Iterations 27
DILUPBiCGStab:  Solving for ILambda_144_0, Initial residual = 1, Final residual = 2.312834435e-61, No Iterations 21
DILUPBiCGStab:  Solving for ILambda_145_0, Initial residual = 1, Final residual = 1.20781474016e-64, No Iterations 21
DILUPBiCGStab:  Solving for ILambda_146_0, Initial residual = 1, Final residual = 1.22427107648e-61, No Iterations 20
DILUPBiCGStab:  Solving for ILambda_147_0, Initial residual = 1, Final residual = 2.99108609176e-61, No Iterations 21
DILUPBiCGStab:  Solving for ILambda_148_0, Initial residual = 1, Final residual = 1.757289757e-62, No Iterations 18
DILUPBiCGStab:  Solving for ILambda_149_0, Initial residual = 1, Final residual = 1.71592329157e-63, No Iterations 16
DILUPBiCGStab:  Solving for ILambda_150_0, Initial residual = 1, Final residual = 2.41343935117e-63, No Iterations 18
DILUPBiCGStab:  Solving for ILambda_151_0, Initial residual = 1, Final residual = 7.19702413219e-62, No Iterations 19
DILUPBiCGStab:  Solving for ILambda_152_0, Initial residual = 1, Final residual = 1.16438369056e-61, No Iterations 24
DILUPBiCGStab:  Solving for ILambda_153_0, Initial residual = 1, Final residual = 3.80082656668e-61, No Iterations 17
DILUPBiCGStab:  Solving for ILambda_154_0, Initial residual = 1, Final residual = 5.98762568956e-63, No Iterations 19
DILUPBiCGStab:  Solving for ILambda_155_0, Initial residual = 1, Final residual = 3.12486427926e-63, No Iterations 20
DILUPBiCGStab:  Solving for ILambda_156_0, Initial residual = 1, Final residual = 6.42893650736e-62, No Iterations 26
DILUPBiCGStab:  Solving for ILambda_157_0, Initial residual = 1, Final residual = 8.57707892514e-62, No Iterations 34
DILUPBiCGStab:  Solving for ILambda_158_0, Initial residual = 1, Final residual = 2.83498799769e-61, No Iterations 38
DILUPBiCGStab:  Solving for ILambda_159_0, Initial residual = 1, Final residual = 2.93217431989e-61, No Iterations 41
DILUPBiCGStab:  Solving for ILambda_160_0, Initial residual = 1, Final residual = 1.06877232721e-61, No Iterations 42
DILUPBiCGStab:  Solving for ILambda_161_0, Initial residual = 1, Final residual = 5.11521625808e-61, No Iterations 42
DILUPBiCGStab:  Solving for ILambda_162_0, Initial residual = 1, Final residual = 3.83207462556e-61, No Iterations 41
DILUPBiCGStab:  Solving for ILambda_163_0, Initial residual = 1, Final residual = 9.65681091641e-62, No Iterations 42
DILUPBiCGStab:  Solving for ILambda_164_0, Initial residual = 1, Final residual = 6.01859263229e-61, No Iterations 41
DILUPBiCGStab:  Solving for ILambda_165_0, Initial residual = 1, Final residual = 7.30287201234e-61, No Iterations 40
DILUPBiCGStab:  Solving for ILambda_166_0, Initial residual = 1, Final residual = 5.81386622946e-62, No Iterations 34
DILUPBiCGStab:  Solving for ILambda_167_0, Initial residual = 1, Final residual = 3.44285450649e-62, No Iterations 26
DILUPBiCGStab:  Solving for ILambda_168_0, Initial residual = 1, Final residual = 2.02997625257e-75, No Iterations 3
DILUPBiCGStab:  Solving for ILambda_169_0, Initial residual = 1, Final residual = 1.51948822291e-75, No Iterations 3
DILUPBiCGStab:  Solving for ILambda_170_0, Initial residual = 1, Final residual = 3.32821815102e-75, No Iterations 3
DILUPBiCGStab:  Solving for ILambda_171_0, Initial residual = 1, Final residual = 3.15519949342e-61, No Iterations 2
DILUPBiCGStab:  Solving for ILambda_172_0, Initial residual = 1, Final residual = 2.21048005835e-75, No Iterations 3
DILUPBiCGStab:  Solving for ILambda_173_0, Initial residual = 1, Final residual = 1.47173942059e-75, No Iterations 3
DILUPBiCGStab:  Solving for ILambda_174_0, Initial residual = 1, Final residual = 1.39314122275e-75, No Iterations 3
DILUPBiCGStab:  Solving for ILambda_175_0, Initial residual = 1, Final residual = 3.79529973059e-75, No Iterations 3
DILUPBiCGStab:  Solving for ILambda_176_0, Initial residual = 1, Final residual = 1.73842167503e-75, No Iterations 3
DILUPBiCGStab:  Solving for ILambda_177_0, Initial residual = 1, Final residual = 1.61986249783e-75, No Iterations 3
DILUPBiCGStab:  Solving for ILambda_178_0, Initial residual = 1, Final residual = 5.02635484581e-76, No Iterations 3
DILUPBiCGStab:  Solving for ILambda_179_0, Initial residual = 1, Final residual = 2.16934156792e-74, No Iterations 3
DILUPBiCGStab:  Solving for ILambda_180_0, Initial residual = 1, Final residual = 1.10610923295e-61, No Iterations 26
DILUPBiCGStab:  Solving for ILambda_181_0, Initial residual = 1, Final residual = 1.56170642644e-61, No Iterations 34
DILUPBiCGStab:  Solving for ILambda_182_0, Initial residual = 1, Final residual = 2.28725659284e-61, No Iterations 41
DILUPBiCGStab:  Solving for ILambda_183_0, Initial residual = 1, Final residual = 8.64985326152e-61, No Iterations 41
DILUPBiCGStab:  Solving for ILambda_184_0, Initial residual = 1, Final residual = 8.6304440223e-61, No Iterations 42
DILUPBiCGStab:  Solving for ILambda_185_0, Initial residual = 1, Final residual = 2.53915382849e-61, No Iterations 42
DILUPBiCGStab:  Solving for ILambda_186_0, Initial residual = 1, Final residual = 6.57799952196e-61, No Iterations 41
DILUPBiCGStab:  Solving for ILambda_187_0, Initial residual = 1, Final residual = 2.36315077017e-61, No Iterations 42
DILUPBiCGStab:  Solving for ILambda_188_0, Initial residual = 1, Final residual = 2.62410509747e-61, No Iterations 42
DILUPBiCGStab:  Solving for ILambda_189_0, Initial residual = 1, Final residual = 2.75498831173e-61, No Iterations 39
DILUPBiCGStab:  Solving for ILambda_190_0, Initial residual = 1, Final residual = 5.24290753878e-62, No Iterations 34
DILUPBiCGStab:  Solving for ILambda_191_0, Initial residual = 1, Final residual = 4.34178379569e-62, No Iterations 26
DILUPBiCGStab:  Solving for ILambda_192_0, Initial residual = 1, Final residual = 1.37030266204e-63, No Iterations 17
DILUPBiCGStab:  Solving for ILambda_193_0, Initial residual = 1, Final residual = 2.44923142348e-64, No Iterations 17
DILUPBiCGStab:  Solving for ILambda_194_0, Initial residual = 1, Final residual = 2.57596974422e-61, No Iterations 19
DILUPBiCGStab:  Solving for ILambda_195_0, Initial residual = 1, Final residual = 5.59546801241e-61, No Iterations 18
DILUPBiCGStab:  Solving for ILambda_196_0, Initial residual = 1, Final residual = 2.9555707872e-61, No Iterations 16
DILUPBiCGStab:  Solving for ILambda_197_0, Initial residual = 1, Final residual = 1.4195376268e-61, No Iterations 14
DILUPBiCGStab:  Solving for ILambda_198_0, Initial residual = 1, Final residual = 1.02933582941e-62, No Iterations 19
DILUPBiCGStab:  Solving for ILambda_199_0, Initial residual = 1, Final residual = 1.00919320746e-63, No Iterations 21
DILUPBiCGStab:  Solving for ILambda_200_0, Initial residual = 1, Final residual = 7.42897993773e-62, No Iterations 19
DILUPBiCGStab:  Solving for ILambda_201_0, Initial residual = 1, Final residual = 4.89934615259e-62, No Iterations 23
DILUPBiCGStab:  Solving for ILambda_202_0, Initial residual = 1, Final residual = 2.74344875728e-63, No Iterations 19
DILUPBiCGStab:  Solving for ILambda_203_0, Initial residual = 1, Final residual = 6.85995168083e-61, No Iterations 15
DILUPBiCGStab:  Solving for ILambda_204_0, Initial residual = 1, Final residual = 1.23904372191e-61, No Iterations 26
DILUPBiCGStab:  Solving for ILambda_205_0, Initial residual = 1, Final residual = 1.09018213455e-61, No Iterations 33
DILUPBiCGStab:  Solving for ILambda_206_0, Initial residual = 1, Final residual = 2.24411206465e-61, No Iterations 39
DILUPBiCGStab:  Solving for ILambda_207_0, Initial residual = 1, Final residual = 1.41633415972e-61, No Iterations 40
DILUPBiCGStab:  Solving for ILambda_208_0, Initial residual = 1, Final residual = 6.61377563146e-61, No Iterations 41
DILUPBiCGStab:  Solving for ILambda_209_0, Initial residual = 1, Final residual = 2.13041911594e-61, No Iterations 42
DILUPBiCGStab:  Solving for ILambda_210_0, Initial residual = 1, Final residual = 1.39384602516e-61, No Iterations 41
DILUPBiCGStab:  Solving for ILambda_211_0, Initial residual = 1, Final residual = 1.96532959793e-61, No Iterations 41
DILUPBiCGStab:  Solving for ILambda_212_0, Initial residual = 1, Final residual = 8.06338413854e-61, No Iterations 42
DILUPBiCGStab:  Solving for ILambda_213_0, Initial residual = 1, Final residual = 4.90700149076e-61, No Iterations 39
DILUPBiCGStab:  Solving for ILambda_214_0, Initial residual = 1, Final residual = 4.96916710801e-61, No Iterations 33
DILUPBiCGStab:  Solving for ILambda_215_0, Initial residual = 1, Final residual = 1.17459276364e-61, No Iterations 26
DILUPBiCGStab:  Solving for ILambda_216_0, Initial residual = 1, Final residual = 1.31335502467e-75, No Iterations 3
DILUPBiCGStab:  Solving for ILambda_217_0, Initial residual = 1, Final residual = 1.70491864255e-75, No Iterations 3
DILUPBiCGStab:  Solving for ILambda_218_0, Initial residual = 1, Final residual = 5.56520790669e-71, No Iterations 3
DILUPBiCGStab:  Solving for ILambda_219_0, Initial residual = 1, Final residual = 7.89294974342e-61, No Iterations 2
DILUPBiCGStab:  Solving for ILambda_220_0, Initial residual = 1, Final residual = 1.98103045289e-61, No Iterations 2
DILUPBiCGStab:  Solving for ILambda_221_0, Initial residual = 1, Final residual = 5.61444320179e-61, No Iterations 2
DILUPBiCGStab:  Solving for ILambda_222_0, Initial residual = 1, Final residual = 6.86527762295e-61, No Iterations 2
DILUPBiCGStab:  Solving for ILambda_223_0, Initial residual = 1, Final residual = 2.16196175356e-61, No Iterations 2
DILUPBiCGStab:  Solving for ILambda_224_0, Initial residual = 1, Final residual = 7.44528518039e-75, No Iterations 3
DILUPBiCGStab:  Solving for ILambda_225_0, Initial residual = 1, Final residual = 9.66596172302e-61, No Iterations 2
DILUPBiCGStab:  Solving for ILambda_226_0, Initial residual = 1, Final residual = 4.0664912227e-75, No Iterations 3
DILUPBiCGStab:  Solving for ILambda_227_0, Initial residual = 1, Final residual = 6.67241664299e-61, No Iterations 2
DILUPBiCGStab:  Solving for ILambda_228_0, Initial residual = 1, Final residual = 6.12100038079e-62, No Iterations 26
DILUPBiCGStab:  Solving for ILambda_229_0, Initial residual = 1, Final residual = 1.58725790424e-61, No Iterations 34
DILUPBiCGStab:  Solving for ILambda_230_0, Initial residual = 1, Final residual = 1.667787846e-61, No Iterations 39
DILUPBiCGStab:  Solving for ILambda_231_0, Initial residual = 1, Final residual = 2.7206008804e-61, No Iterations 41
DILUPBiCGStab:  Solving for ILambda_232_0, Initial residual = 1, Final residual = 5.89134174196e-61, No Iterations 41
DILUPBiCGStab:  Solving for ILambda_233_0, Initial residual = 1, Final residual = 1.7472807921e-61, No Iterations 41
DILUPBiCGStab:  Solving for ILambda_234_0, Initial residual = 1, Final residual = 3.39028783709e-61, No Iterations 41
DILUPBiCGStab:  Solving for ILambda_235_0, Initial residual = 1, Final residual = 6.37473760368e-61, No Iterations 40
DILUPBiCGStab:  Solving for ILambda_236_0, Initial residual = 1, Final residual = 5.55465735786e-62, No Iterations 40
DILUPBiCGStab:  Solving for ILambda_237_0, Initial residual = 1, Final residual = 7.80246900722e-62, No Iterations 38
DILUPBiCGStab:  Solving for ILambda_238_0, Initial residual = 1, Final residual = 1.25462876287e-61, No Iterations 33
DILUPBiCGStab:  Solving for ILambda_239_0, Initial residual = 1, Final residual = 8.20755077346e-62, No Iterations 26
DILUPBiCGStab:  Solving for ILambda_240_0, Initial residual = 1, Final residual = 7.95928105653e-62, No Iterations 18
DILUPBiCGStab:  Solving for ILambda_241_0, Initial residual = 1, Final residual = 1.06344093076e-61, No Iterations 18
DILUPBiCGStab:  Solving for ILambda_242_0, Initial residual = 1, Final residual = 2.74778307704e-64, No Iterations 19
DILUPBiCGStab:  Solving for ILambda_243_0, Initial residual = 1, Final residual = 3.72870424229e-61, No Iterations 17
DILUPBiCGStab:  Solving for ILambda_244_0, Initial residual = 1, Final residual = 2.97527006571e-62, No Iterations 13
DILUPBiCGStab:  Solving for ILambda_245_0, Initial residual = 1, Final residual = 9.72762673279e-62, No Iterations 14
DILUPBiCGStab:  Solving for ILambda_246_0, Initial residual = 1, Final residual = 4.64553446937e-63, No Iterations 17
DILUPBiCGStab:  Solving for ILambda_247_0, Initial residual = 1, Final residual = 2.94754331829e-62, No Iterations 15
DILUPBiCGStab:  Solving for ILambda_248_0, Initial residual = 1, Final residual = 1.85970422927e-61, No Iterations 19
DILUPBiCGStab:  Solving for ILambda_249_0, Initial residual = 1, Final residual = 1.25177323821e-61, No Iterations 21
DILUPBiCGStab:  Solving for ILambda_250_0, Initial residual = 1, Final residual = 9.62741208141e-64, No Iterations 17
DILUPBiCGStab:  Solving for ILambda_251_0, Initial residual = 1, Final residual = 6.44845950309e-61, No Iterations 16
DILUPBiCGStab:  Solving for ILambda_252_0, Initial residual = 1, Final residual = 6.76240250618e-62, No Iterations 25
DILUPBiCGStab:  Solving for ILambda_253_0, Initial residual = 1, Final residual = 4.46815948443e-62, No Iterations 32
DILUPBiCGStab:  Solving for ILambda_254_0, Initial residual = 1, Final residual = 7.55567756705e-61, No Iterations 36
DILUPBiCGStab:  Solving for ILambda_255_0, Initial residual = 1, Final residual = 4.11996813476e-61, No Iterations 37
DILUPBiCGStab:  Solving for ILambda_256_0, Initial residual = 1, Final residual = 2.81532476026e-61, No Iterations 37
DILUPBiCGStab:  Solving for ILambda_257_0, Initial residual = 1, Final residual = 8.84759131072e-61, No Iterations 38
DILUPBiCGStab:  Solving for ILambda_258_0, Initial residual = 1, Final residual = 8.48818531644e-61, No Iterations 38
DILUPBiCGStab:  Solving for ILambda_259_0, Initial residual = 1, Final residual = 2.31899913089e-61, No Iterations 38
DILUPBiCGStab:  Solving for ILambda_260_0, Initial residual = 1, Final residual = 3.56114402303e-61, No Iterations 38
DILUPBiCGStab:  Solving for ILambda_261_0, Initial residual = 1, Final residual = 1.93962878059e-61, No Iterations 34
DILUPBiCGStab:  Solving for ILambda_262_0, Initial residual = 1, Final residual = 7.98316511236e-61, No Iterations 31
DILUPBiCGStab:  Solving for ILambda_263_0, Initial residual = 1, Final residual = 5.97044771374e-62, No Iterations 24
DILUPBiCGStab:  Solving for ILambda_264_0, Initial residual = 1, Final residual = 2.26280133386e-61, No Iterations 2
DILUPBiCGStab:  Solving for ILambda_265_0, Initial residual = 1, Final residual = 1.37032861052e-61, No Iterations 2
DILUPBiCGStab:  Solving for ILambda_266_0, Initial residual = 1, Final residual = 2.10276737671e-61, No Iterations 2
DILUPBiCGStab:  Solving for ILambda_267_0, Initial residual = 1, Final residual = 5.07898597257e-62, No Iterations 2
DILUPBiCGStab:  Solving for ILambda_268_0, Initial residual = 1, Final residual = 1.84858721416e-61, No Iterations 2
DILUPBiCGStab:  Solving for ILambda_269_0, Initial residual = 1, Final residual = 1.57401888596e-61, No Iterations 2
DILUPBiCGStab:  Solving for ILambda_270_0, Initial residual = 1, Final residual = 2.9973735931e-62, No Iterations 2
DILUPBiCGStab:  Solving for ILambda_271_0, Initial residual = 1, Final residual = 3.2809595225e-61, No Iterations 2
DILUPBiCGStab:  Solving for ILambda_272_0, Initial residual = 1, Final residual = 8.66838193713e-62, No Iterations 2
DILUPBiCGStab:  Solving for ILambda_273_0, Initial residual = 1, Final residual = 1.57858987912e-61, No Iterations 2
DILUPBiCGStab:  Solving for ILambda_274_0, Initial residual = 1, Final residual = 1.32784872058e-61, No Iterations 2
DILUPBiCGStab:  Solving for ILambda_275_0, Initial residual = 1, Final residual = 1.05572726084e-61, No Iterations 2
DILUPBiCGStab:  Solving for ILambda_276_0, Initial residual = 1, Final residual = 1.37030252551e-61, No Iterations 24
DILUPBiCGStab:  Solving for ILambda_277_0, Initial residual = 1, Final residual = 7.56303737458e-61, No Iterations 31
DILUPBiCGStab:  Solving for ILambda_278_0, Initial residual = 1, Final residual = 1.47700046854e-61, No Iterations 35
DILUPBiCGStab:  Solving for ILambda_279_0, Initial residual = 1, Final residual = 6.66671975804e-62, No Iterations 38
DILUPBiCGStab:  Solving for ILambda_280_0, Initial residual = 1, Final residual = 7.1292937628e-61, No Iterations 38
DILUPBiCGStab:  Solving for ILambda_281_0, Initial residual = 1, Final residual = 1.13043879487e-61, No Iterations 38
DILUPBiCGStab:  Solving for ILambda_282_0, Initial residual = 1, Final residual = 6.97127476901e-62, No Iterations 38
DILUPBiCGStab:  Solving for ILambda_283_0, Initial residual = 1, Final residual = 1.52973698956e-61, No Iterations 37
DILUPBiCGStab:  Solving for ILambda_284_0, Initial residual = 1, Final residual = 3.60504464292e-61, No Iterations 37
DILUPBiCGStab:  Solving for ILambda_285_0, Initial residual = 1, Final residual = 8.83324574458e-62, No Iterations 36
[...]
DILUPBiCGStab:  Solving for ILambda_140_0, Initial residual = 3.66409201511e-16, Final residual = 7.64441233886e-61, No Iterations 28
DILUPBiCGStab:  Solving for ILambda_141_0, Initial residual = 3.33573180758e-16, Final residual = 1.78426597627e-61, No Iterations 25
DILUPBiCGStab:  Solving for ILambda_142_0, Initial residual = 2.90466215875e-16, Final residual = 3.72162230965e-61, No Iterations 24
DILUPBiCGStab:  Solving for ILambda_143_0, Initial residual = 3.12313386949e-16, Final residual = 3.96503929464e-64, No Iterations 20
DILUPBiCGStab:  Solving for ILambda_144_0, Initial residual = 2.59212850532e-16, Final residual = 6.36261147879e-62, No Iterations 9
DILUPBiCGStab:  Solving for ILambda_145_0, Initial residual = 2.7646705771e-16, Final residual = 7.88392390543e-63, No Iterations 9
DILUPBiCGStab:  Solving for ILambda_146_0, Initial residual = 2.67664556743e-16, Final residual = 1.72558763694e-64, No Iterations 8
DILUPBiCGStab:  Solving for ILambda_147_0, Initial residual = 2.97947117994e-16, Final residual = 1.8501431783e-61, No Iterations 8
DILUPBiCGStab:  Solving for ILambda_148_0, Initial residual = 2.50165609038e-16, Final residual = 2.82795421148e-63, No Iterations 9
DILUPBiCGStab:  Solving for ILambda_149_0, Initial residual = 2.27412898012e-16, Final residual = 1.12395523639e-63, No Iterations 8
DILUPBiCGStab:  Solving for ILambda_150_0, Initial residual = 2.32071126049e-16, Final residual = 6.18430197752e-62, No Iterations 9
DILUPBiCGStab:  Solving for ILambda_151_0, Initial residual = 2.96739731393e-16, Final residual = 2.11266449945e-63, No Iterations 8
DILUPBiCGStab:  Solving for ILambda_152_0, Initial residual = 3.38231408796e-16, Final residual = 5.65665146346e-62, No Iterations 8
DILUPBiCGStab:  Solving for ILambda_153_0, Initial residual = 2.99252400807e-16, Final residual = 8.97584643456e-61, No Iterations 8
DILUPBiCGStab:  Solving for ILambda_154_0, Initial residual = 2.83083209966e-16, Final residual = 3.5984250156e-62, No Iterations 9
DILUPBiCGStab:  Solving for ILambda_155_0, Initial residual = 2.86656421666e-16, Final residual = 3.24016651516e-63, No Iterations 9
DILUPBiCGStab:  Solving for ILambda_156_0, Initial residual = 2.53436974087e-16, Final residual = 2.39251520078e-61, No Iterations 19
DILUPBiCGStab:  Solving for ILambda_157_0, Initial residual = 2.88769348219e-16, Final residual = 5.44709246653e-61, No Iterations 22
DILUPBiCGStab:  Solving for ILambda_158_0, Initial residual = 3.02099548941e-16, Final residual = 5.29811922006e-61, No Iterations 25
DILUPBiCGStab:  Solving for ILambda_159_0, Initial residual = 3.272344011e-16, Final residual = 1.94041603265e-61, No Iterations 28
DILUPBiCGStab:  Solving for ILambda_160_0, Initial residual = 3.20332718229e-16, Final residual = 6.51246232128e-61, No Iterations 30
DILUPBiCGStab:  Solving for ILambda_161_0, Initial residual = 2.10933702504e-16, Final residual = 1.91441483333e-61, No Iterations 29
DILUPBiCGStab:  Solving for ILambda_162_0, Initial residual = 2.43957357661e-16, Final residual = 7.57058439078e-62, No Iterations 30
DILUPBiCGStab:  Solving for ILambda_163_0, Initial residual = 2.93297047974e-16, Final residual = 2.94409919863e-61, No Iterations 29
DILUPBiCGStab:  Solving for ILambda_164_0, Initial residual = 2.90360161646e-16, Final residual = 8.2399333072e-61, No Iterations 28
DILUPBiCGStab:  Solving for ILambda_165_0, Initial residual = 2.89495411783e-16, Final residual = 2.40773022215e-61, No Iterations 24
DILUPBiCGStab:  Solving for ILambda_166_0, Initial residual = 3.1059204524e-16, Final residual = 3.9147018354e-61, No Iterations 23
DILUPBiCGStab:  Solving for ILambda_167_0, Initial residual = 2.76450741675e-16, Final residual = 5.00908432339e-61, No Iterations 19
DILUPBiCGStab:  Solving for ILambda_168_0, Initial residual = 2.76899432642e-16, Final residual = 5.06550055424e-63, No Iterations 2
DILUPBiCGStab:  Solving for ILambda_169_0, Initial residual = 3.04049315143e-16, Final residual = 1.47321794669e-62, No Iterations 2
DILUPBiCGStab:  Solving for ILambda_170_0, Initial residual = 2.82169511998e-16, Final residual = 8.73483138031e-63, No Iterations 2
DILUPBiCGStab:  Solving for ILambda_171_0, Initial residual = 3.07736739088e-16, Final residual = 1.84033691135e-62, No Iterations 2
DILUPBiCGStab:  Solving for ILambda_172_0, Initial residual = 2.44120518013e-16, Final residual = 5.44763014179e-63, No Iterations 2
DILUPBiCGStab:  Solving for ILambda_173_0, Initial residual = 2.1781906934e-16, Final residual = 3.75489607463e-63, No Iterations 2
DILUPBiCGStab:  Solving for ILambda_174_0, Initial residual = 2.3287876979e-16, Final residual = 3.01405146638e-62, No Iterations 2
DILUPBiCGStab:  Solving for ILambda_175_0, Initial residual = 2.46192654477e-16, Final residual = 9.32482944681e-63, No Iterations 2
DILUPBiCGStab:  Solving for ILambda_176_0, Initial residual = 3.06774093014e-16, Final residual = 2.32379518678e-62, No Iterations 2
DILUPBiCGStab:  Solving for ILambda_177_0, Initial residual = 2.59114954321e-16, Final residual = 7.84359061887e-63, No Iterations 2
DILUPBiCGStab:  Solving for ILambda_178_0, Initial residual = 2.90947538912e-16, Final residual = 1.13602556776e-62, No Iterations 2
DILUPBiCGStab:  Solving for ILambda_179_0, Initial residual = 2.57736249351e-16, Final residual = 1.1726214188e-62, No Iterations 2
DILUPBiCGStab:  Solving for ILambda_180_0, Initial residual = 2.69181948013e-16, Final residual = 5.15217428859e-62, No Iterations 19
DILUPBiCGStab:  Solving for ILambda_181_0, Initial residual = 2.96739731393e-16, Final residual = 4.45734491271e-61, No Iterations 22
DILUPBiCGStab:  Solving for ILambda_182_0, Initial residual = 3.02858244576e-16, Final residual = 4.39514580752e-61, No Iterations 24
DILUPBiCGStab:  Solving for ILambda_183_0, Initial residual = 3.15250273278e-16, Final residual = 3.86343999958e-61, No Iterations 27
DILUPBiCGStab:  Solving for ILambda_184_0, Initial residual = 2.56235174116e-16, Final residual = 8.65162935084e-61, No Iterations 28
DILUPBiCGStab:  Solving for ILambda_185_0, Initial residual = 2.19564885102e-16, Final residual = 1.87019743673e-61, No Iterations 29
DILUPBiCGStab:  Solving for ILambda_186_0, Initial residual = 2.49154014858e-16, Final residual = 5.39256571586e-61, No Iterations 29
DILUPBiCGStab:  Solving for ILambda_187_0, Initial residual = 2.7461518772e-16, Final residual = 1.17901185438e-61, No Iterations 29
DILUPBiCGStab:  Solving for ILambda_188_0, Initial residual = 3.65161024822e-16, Final residual = 2.36378722532e-61, No Iterations 26
DILUPBiCGStab:  Solving for ILambda_189_0, Initial residual = 2.97922643941e-16, Final residual = 6.38143381273e-61, No Iterations 24
DILUPBiCGStab:  Solving for ILambda_190_0, Initial residual = 3.09629399166e-16, Final residual = 5.61843413771e-61, No Iterations 24
DILUPBiCGStab:  Solving for ILambda_191_0, Initial residual = 2.70487230826e-16, Final residual = 1.16475121585e-61, No Iterations 19
DILUPBiCGStab:  Solving for ILambda_192_0, Initial residual = 7.32916299233e-17, Final residual = 2.06169403231e-61, No Iterations 8
DILUPBiCGStab:  Solving for ILambda_193_0, Initial residual = 8.24571626725e-17, Final residual = 2.22221043915e-61, No Iterations 8
DILUPBiCGStab:  Solving for ILambda_194_0, Initial residual = 6.96531540834e-17, Final residual = 2.31830880853e-64, No Iterations 8
DILUPBiCGStab:  Solving for ILambda_195_0, Initial residual = 5.52379370226e-17, Final residual = 1.69937687946e-61, No Iterations 8
DILUPBiCGStab:  Solving for ILambda_196_0, Initial residual = 5.70408589074e-17, Final residual = 6.56230210683e-61, No Iterations 8
DILUPBiCGStab:  Solving for ILambda_197_0, Initial residual = 5.21868384483e-17, Final residual = 4.03777846244e-62, No Iterations 8
DILUPBiCGStab:  Solving for ILambda_198_0, Initial residual = 5.09998468906e-17, Final residual = 2.02541879646e-62, No Iterations 9
DILUPBiCGStab:  Solving for ILambda_199_0, Initial residual = 5.44017402208e-17, Final residual = 2.51710630425e-61, No Iterations 7
DILUPBiCGStab:  Solving for ILambda_200_0, Initial residual = 7.99975203727e-17, Final residual = 4.57516511772e-62, No Iterations 8
DILUPBiCGStab:  Solving for ILambda_201_0, Initial residual = 8.17800472135e-17, Final residual = 6.98132148245e-61, No Iterations 7
DILUPBiCGStab:  Solving for ILambda_202_0, Initial residual = 8.86123869353e-17, Final residual = 9.99475398127e-63, No Iterations 9
DILUPBiCGStab:  Solving for ILambda_203_0, Initial residual = 6.77564149964e-17, Final residual = 1.59250896711e-62, No Iterations 8
DILUPBiCGStab:  Solving for ILambda_204_0, Initial residual = 7.19414780141e-17, Final residual = 2.38183807595e-61, No Iterations 19
DILUPBiCGStab:  Solving for ILambda_205_0, Initial residual = 7.61550940933e-17, Final residual = 1.04294448123e-61, No Iterations 24
DILUPBiCGStab:  Solving for ILambda_206_0, Initial residual = 6.89678806068e-17, Final residual = 1.41009655883e-61, No Iterations 24
DILUPBiCGStab:  Solving for ILambda_207_0, Initial residual = 6.36325371106e-17, Final residual = 3.57142149361e-61, No Iterations 26
DILUPBiCGStab:  Solving for ILambda_208_0, Initial residual = 5.64453236241e-17, Final residual = 3.99912120183e-62, No Iterations 29
DILUPBiCGStab:  Solving for ILambda_209_0, Initial residual = 6.58637549183e-17, Final residual = 7.12885287461e-62, No Iterations 30
DILUPBiCGStab:  Solving for ILambda_210_0, Initial residual = 5.31535635313e-17, Final residual = 1.68990358502e-61, No Iterations 30
DILUPBiCGStab:  Solving for ILambda_211_0, Initial residual = 6.18948793664e-17, Final residual = 1.48820799509e-61, No Iterations 29
DILUPBiCGStab:  Solving for ILambda_212_0, Initial residual = 8.77965851775e-17, Final residual = 6.20276079897e-61, No Iterations 26
DILUPBiCGStab:  Solving for ILambda_213_0, Initial residual = 9.07375505145e-17, Final residual = 4.93879781564e-61, No Iterations 25
DILUPBiCGStab:  Solving for ILambda_214_0, Initial residual = 9.01012251434e-17, Final residual = 3.39675693561e-61, No Iterations 23
DILUPBiCGStab:  Solving for ILambda_215_0, Initial residual = 8.16576769498e-17, Final residual = 6.68094029988e-61, No Iterations 18
DILUPBiCGStab:  Solving for ILambda_216_0, Initial residual = 7.84678920767e-17, Final residual = 4.00961856712e-63, No Iterations 2
DILUPBiCGStab:  Solving for ILambda_217_0, Initial residual = 8.10499046403e-17, Final residual = 1.87045717548e-63, No Iterations 2
DILUPBiCGStab:  Solving for ILambda_218_0, Initial residual = 8.56632635808e-17, Final residual = 1.18517598001e-63, No Iterations 2
DILUPBiCGStab:  Solving for ILambda_219_0, Initial residual = 7.53148182827e-17, Final residual = 2.21675520221e-63, No Iterations 2
DILUPBiCGStab:  Solving for ILambda_220_0, Initial residual = 5.45404265196e-17, Final residual = 1.00527825156e-63, No Iterations 2
DILUPBiCGStab:  Solving for ILambda_221_0, Initial residual = 5.79423198498e-17, Final residual = 7.83666831878e-63, No Iterations 2
DILUPBiCGStab:  Solving for ILambda_222_0, Initial residual = 6.21681729553e-17, Final residual = 3.07562422982e-63, No Iterations 2
DILUPBiCGStab:  Solving for ILambda_223_0, Initial residual = 5.17259104551e-17, Final residual = 2.81230415962e-63, No Iterations 2
DILUPBiCGStab:  Solving for ILambda_224_0, Initial residual = 5.32840918126e-17, Final residual = 1.10746752681e-63, No Iterations 2
DILUPBiCGStab:  Solving for ILambda_225_0, Initial residual = 7.18721348647e-17, Final residual = 1.1797356365e-63, No Iterations 2
DILUPBiCGStab:  Solving for ILambda_226_0, Initial residual = 8.48229877702e-17, Final residual = 3.61337862463e-63, No Iterations 2
DILUPBiCGStab:  Solving for ILambda_227_0, Initial residual = 7.26879366225e-17, Final residual = 6.70074322187e-63, No Iterations 2
DILUPBiCGStab:  Solving for ILambda_228_0, Initial residual = 5.94311580578e-17, Final residual = 3.29061852355e-61, No Iterations 18
DILUPBiCGStab:  Solving for ILambda_229_0, Initial residual = 9.05866271893e-17, Final residual = 2.20375171521e-61, No Iterations 23
DILUPBiCGStab:  Solving for ILambda_230_0, Initial residual = 9.64481628193e-17, Final residual = 2.91130260109e-61, No Iterations 25
DILUPBiCGStab:  Solving for ILambda_231_0, Initial residual = 8.10499046403e-17, Final residual = 1.02494342299e-61, No Iterations 26
DILUPBiCGStab:  Solving for ILambda_232_0, Initial residual = 5.95943184094e-17, Final residual = 1.92032407287e-61, No Iterations 26
DILUPBiCGStab:  Solving for ILambda_233_0, Initial residual = 5.89579930383e-17, Final residual = 8.18947038372e-61, No Iterations 27
DILUPBiCGStab:  Solving for ILambda_234_0, Initial residual = 5.02533882822e-17, Final residual = 6.53287400166e-61, No Iterations 29
DILUPBiCGStab:  Solving for ILambda_235_0, Initial residual = 6.18296152258e-17, Final residual = 1.54905295328e-61, No Iterations 28
DILUPBiCGStab:  Solving for ILambda_236_0, Initial residual = 5.29496130919e-17, Final residual = 1.84323627962e-61, No Iterations 26
DILUPBiCGStab:  Solving for ILambda_237_0, Initial residual = 8.18942594596e-17, Final residual = 1.00765950923e-61, No Iterations 24
DILUPBiCGStab:  Solving for ILambda_238_0, Initial residual = 9.51632750507e-17, Final residual = 6.29682938095e-61, No Iterations 23
DILUPBiCGStab:  Solving for ILambda_239_0, Initial residual = 7.69260267544e-17, Final residual = 2.41150042592e-61, No Iterations 19
DILUPBiCGStab:  Solving for ILambda_240_0, Initial residual = 1.76111204471e-17, Final residual = 9.93828933308e-62, No Iterations 9
DILUPBiCGStab:  Solving for ILambda_241_0, Initial residual = 1.92753560331e-17, Final residual = 1.5846422425e-63, No Iterations 8
DILUPBiCGStab:  Solving for ILambda_242_0, Initial residual = 3.02254551275e-17, Final residual = 6.07756078568e-64, No Iterations 7
DILUPBiCGStab:  Solving for ILambda_243_0, Initial residual = 2.95279446246e-17, Final residual = 1.50805535419e-62, No Iterations 8
DILUPBiCGStab:  Solving for ILambda_244_0, Initial residual = 3.22160114166e-17, Final residual = 4.159654595e-62, No Iterations 7
DILUPBiCGStab:  Solving for ILambda_245_0, Initial residual = 3.35008991852e-17, Final residual = 9.06575978286e-61, No Iterations 9
DILUPBiCGStab:  Solving for ILambda_246_0, Initial residual = 3.35620843171e-17, Final residual = 3.06361210362e-63, No Iterations 8
DILUPBiCGStab:  Solving for ILambda_247_0, Initial residual = 3.58381712214e-17, Final residual = 4.62133736062e-63, No Iterations 8
DILUPBiCGStab:  Solving for ILambda_248_0, Initial residual = 3.36232694489e-17, Final residual = 1.42700333803e-65, No Iterations 7
DILUPBiCGStab:  Solving for ILambda_249_0, Initial residual = 3.20854831354e-17, Final residual = 8.41196941476e-61, No Iterations 7
DILUPBiCGStab:  Solving for ILambda_250_0, Initial residual = 2.21327016899e-17, Final residual = 2.64771016207e-63, No Iterations 8
DILUPBiCGStab:  Solving for ILambda_251_0, Initial residual = 2.76617981036e-17, Final residual = 9.07101459708e-62, No Iterations 8
DILUPBiCGStab:  Solving for ILambda_252_0, Initial residual = 1.8541134451e-17, Final residual = 2.17876994821e-61, No Iterations 18
DILUPBiCGStab:  Solving for ILambda_253_0, Initial residual = 1.97179284867e-17, Final residual = 8.59408533536e-62, No Iterations 22
DILUPBiCGStab:  Solving for ILambda_254_0, Initial residual = 2.78943016046e-17, Final residual = 8.22704232284e-61, No Iterations 25
DILUPBiCGStab:  Solving for ILambda_255_0, Initial residual = 2.83837826592e-17, Final residual = 9.32431208821e-61, No Iterations 26
DILUPBiCGStab:  Solving for ILambda_256_0, Initial residual = 3.08087533844e-17, Final residual = 6.64751884354e-61, No Iterations 29
DILUPBiCGStab:  Solving for ILambda_257_0, Initial residual = 3.38986025422e-17, Final residual = 1.90582574398e-61, No Iterations 27
DILUPBiCGStab:  Solving for ILambda_258_0, Initial residual = 3.40128147883e-17, Final residual = 6.47285348603e-61, No Iterations 26
DILUPBiCGStab:  Solving for ILambda_259_0, Initial residual = 3.62114005256e-17, Final residual = 4.22012438652e-61, No Iterations 29
DILUPBiCGStab:  Solving for ILambda_260_0, Initial residual = 3.33214227985e-17, Final residual = 8.30307393907e-61, No Iterations 25
DILUPBiCGStab:  Solving for ILambda_261_0, Initial residual = 3.06088819537e-17, Final residual = 1.38779846632e-61, No Iterations 24
DILUPBiCGStab:  Solving for ILambda_262_0, Initial residual = 2.19980943998e-17, Final residual = 9.49672426493e-61, No Iterations 21
DILUPBiCGStab:  Solving for ILambda_263_0, Initial residual = 2.41538505449e-17, Final residual = 2.72252235695e-61, No Iterations 18
DILUPBiCGStab:  Solving for ILambda_264_0, Initial residual = 2.20103314262e-17, Final residual = 5.03743431974e-64, No Iterations 2
DILUPBiCGStab:  Solving for ILambda_265_0, Initial residual = 2.43924725591e-17, Final residual = 1.31292515628e-63, No Iterations 2
DILUPBiCGStab:  Solving for ILambda_266_0, Initial residual = 3.09290841437e-17, Final residual = 2.31806859574e-64, No Iterations 2
DILUPBiCGStab:  Solving for ILambda_267_0, Initial residual = 3.26075962604e-17, Final residual = 2.58285390045e-64, No Iterations 2
DILUPBiCGStab:  Solving for ILambda_268_0, Initial residual = 3.43738070661e-17, Final residual = 1.70322367603e-63, No Iterations 2
DILUPBiCGStab:  Solving for ILambda_269_0, Initial residual = 3.22017348859e-17, Final residual = 4.39163357279e-63, No Iterations 2
DILUPBiCGStab:  Solving for ILambda_270_0, Initial residual = 3.37537977302e-17, Final residual = 1.53305801991e-63, No Iterations 2
DILUPBiCGStab:  Solving for ILambda_271_0, Initial residual = 3.17408068927e-17, Final residual = 9.3568835879e-64, No Iterations 2
DILUPBiCGStab:  Solving for ILambda_272_0, Initial residual = 3.21242337189e-17, Final residual = 8.45305690495e-64, No Iterations 2
DILUPBiCGStab:  Solving for ILambda_273_0, Initial residual = 2.83225975274e-17, Final residual = 9.14399920657e-63, No Iterations 2
DILUPBiCGStab:  Solving for ILambda_274_0, Initial residual = 2.30647551982e-17, Final residual = 1.25990857908e-63, No Iterations 2
DILUPBiCGStab:  Solving for ILambda_275_0, Initial residual = 2.00401701811e-17, Final residual = 1.46465202348e-64, No Iterations 2
DILUPBiCGStab:  Solving for ILambda_276_0, Initial residual = 1.80883644755e-17, Final residual = 7.89453296686e-62, No Iterations 18
DILUPBiCGStab:  Solving for ILambda_277_0, Initial residual = 2.49798498247e-17, Final residual = 3.3399402887e-61, No Iterations 22
DILUPBiCGStab:  Solving for ILambda_278_0, Initial residual = 3.2228248443e-17, Final residual = 1.1515925421e-61, No Iterations 24
DILUPBiCGStab:  Solving for ILambda_279_0, Initial residual = 3.66743680232e-17, Final residual = 4.49333488404e-62, No Iterations 26
DILUPBiCGStab:  Solving for ILambda_280_0, Initial residual = 3.56954059138e-17, Final residual = 1.93255198845e-61, No Iterations 25
DILUPBiCGStab:  Solving for ILambda_281_0, Initial residual = 3.33336598249e-17, Final residual = 2.46291999698e-61, No Iterations 25
DILUPBiCGStab:  Solving for ILambda_282_0, Initial residual = 3.62358745783e-17, Final residual = 3.28998424105e-61, No Iterations 28
DILUPBiCGStab:  Solving for ILambda_283_0, Initial residual = 3.33948449567e-17, Final residual = 5.51763928798e-62, No Iterations 29
DILUPBiCGStab:  Solving for ILambda_284_0, Initial residual = 2.86285231866e-17, Final residual = 5.50386216034e-61, No Iterations 26
DILUPBiCGStab:  Solving for ILambda_285_0, Initial residual = 3.11044815216e-17, Final residual = 4.56538015144e-61, No Iterations 24
DILUPBiCGStab:  Solving for ILambda_286_0, Initial residual = 2.57201899199e-17, Final residual = 5.08138234989e-61, No Iterations 22
DILUPBiCGStab:  Solving for ILambda_287_0, Initial residual = 2.33217327519e-17, Final residual = 7.58283574599e-61, No Iterations 17
min/max(T) = 1000, 1000
ExecutionTime = 2.94 s  ClockTime = 3 s

writeObjects writeObjects1.writeObjects write:
    writing object a
    writing object qem
End

