/*---------------------------------------------------------------------------*\
| =========                 |                                                 |
| \\      /  F ield         | OpenFOAM: The Open Source CFD Toolbox           |
|  \\    /   O peration     | Version:  2306                                  |
|   \\  /    A nd           | Website:  www.openfoam.com                      |
|    \\/     M anipulation  |                                                 |
\*---------------------------------------------------------------------------*/
Build  : _fbf00d6b-20230626 OPENFOAM=2306 version=2306
Arch   : "LSB;label=32;scalar=64"
Exec   : fireRADFoam_MaCFP
Date   : Mar 12 2024
Time   : 21:11:47
Host   : pop-os
PID    : 194922
I/O    : uncollated
Case   : /home/rafay/Desktop/Study/Radiative_Heat_Transfer/Local_copy_RHT2324/01_Projects/02_Rafay/Case_1_q1D_SolidAngle/new_case3/th_8-ph_16/tau_0.05/res_4
nProcs : 1
trapFpe: Floating point exception trapping enabled (FOAM_SIGFPE).
fileModificationChecking : Monitoring run-time modified files using timeStampMaster (fileModificationSkew 5, maxFileModificationPolls 20)
allowSystemOperations : Allowing user-supplied system call operations

// * * * * * * * * * * * * * * * * * * * * * * * * * * * * * * * * * * * * * //
Create time

Create mesh for time = 0


PIMPLE: no residual control data found. Calculations will employ 10 corrector loops

Reading thermophysical properties

Selecting thermodynamics package 
{
    type            hePsiThermo;
    mixture         singleStepReactingMixture;
    transport       sutherland;
    thermo          janaf;
    energy          sensibleEnthalpy;
    equationOfState perfectGas;
    specie          specie;
}

Selecting chemistryReader foamChemistryReader
    elements not defined in "/home/rafay/Desktop/Study/Radiative_Heat_Transfer/Local_copy_RHT2324/01_Projects/02_Rafay/Case_1_q1D_SolidAngle/new_case3/th_8-ph_16/tau_0.05/res_4/constant/reactions"
Fuel heat of combustion :47168962.4726
stoichiometric air-fuel ratio :14.6914056505
stoichiometric oxygen-fuel ratio :3.42181919285
Maximum products mass concentrations:
    H2O: 0.0818486943001
    CO2: 0.199950099979
    N2: 0.718201205721
Creating component thermo properties:
    multi-component carrier - 6 species
    no liquid components
    no solid components
Creating field rho


Reading field U

Reading/calculating face flux field phi

Selecting radiationModel fvDOM
Selecting absorptionEmissionModel constantAbsorptionEmission
Selecting scatterModel none
Selecting sootModel none
fvDOM : Allocated 512 rays with average orientation:
	I0 : dAve : 	(9.42486011392e-05 0.00191847434919 0.00718868112899) : omega : 	0.00747310942032 : d : 	(0.00957262838512 0.194855327179 0.980785280403)
	I1 : dAve : 	(0.000281838137867 0.00189999839246 0.00718868112899) : omega : 	0.00747310942032 : d : 	(0.0286256955111 0.19297876386 0.980785280403)
	I2 : dAve : 	(0.000466713419259 0.00186322441257 0.00718868112899) : omega : 	0.00747310942032 : d : 	(0.0474030815409 0.189243709551 0.980785280403)
	I3 : dAve : 	(0.000647093995292 0.00180850656304 0.00718868112899) : omega : 	0.00747310942032 : d : 	(0.0657239499823 0.183686134869 0.980785280403)
	I4 : dAve : 	(0.000821242702413 0.00173637180669 0.00718868112899) : omega : 	0.00747310942032 : d : 	(0.0834118608569 0.176359562295 0.980785280403)
	I5 : dAve : 	(0.000987482393372 0.00164751484063 0.00718868112899) : omega : 	0.00747310942032 : d : 	(0.100296469914 0.167334550727 0.980785280403)
	I6 : dAve : 	(0.00114421208907 0.00154279140604 0.00718868112899) : omega : 	0.00747310942032 : d : 	(0.116215169138 0.156698015962 0.980785280403)
	I7 : dAve : 	(0.00128992239686 0.00142321004683 0.00718868112899) : omega : 	0.00747310942032 : d : 	(0.131014652754 0.144552393644 0.980785280403)
	I8 : dAve : 	(0.00142321004683 0.00128992239686 0.00718868112899) : omega : 	0.00747310942032 : d : 	(0.144552393644 0.131014652754 0.980785280403)
	I9 : dAve : 	(0.00154279140604 0.00114421208907 0.00718868112899) : omega : 	0.00747310942032 : d : 	(0.156698015962 0.116215169138 0.980785280403)
	I10 : dAve : 	(0.00164751484063 0.000987482393372 0.00718868112899) : omega : 	0.00747310942032 : d : 	(0.167334550727 0.100296469914 0.980785280403)
	I11 : dAve : 	(0.00173637180669 0.000821242702413 0.00718868112899) : omega : 	0.00747310942032 : d : 	(0.176359562295 0.0834118608569 0.980785280403)
	I12 : dAve : 	(0.00180850656304 0.000647093995292 0.00718868112899) : omega : 	0.00747310942032 : d : 	(0.183686134869 0.0657239499823 0.980785280403)
	I13 : dAve : 	(0.00186322441257 0.000466713419259 0.00718868112899) : omega : 	0.00747310942032 : d : 	(0.189243709551 0.0474030815409 0.980785280403)
	I14 : dAve : 	(0.00189999839246 0.000281838137867 0.00718868112899) : omega : 	0.00747310942032 : d : 	(0.19297876386 0.0286256955111 0.980785280403)
	I15 : dAve : 	(0.00191847434919 9.42486011392e-05 0.00718868112899) : omega : 	0.00747310942032 : d : 	(0.194855327179 0.00957262838512 0.980785280403)
	I16 : dAve : 	(0.00191847434919 -9.42486011392e-05 0.00718868112899) : omega : 	0.00747310942032 : d : 	(0.194855327179 -0.00957262838512 0.980785280403)
	I17 : dAve : 	(0.00189999839246 -0.000281838137867 0.00718868112899) : omega : 	0.00747310942032 : d : 	(0.19297876386 -0.0286256955111 0.980785280403)
	I18 : dAve : 	(0.00186322441257 -0.000466713419259 0.00718868112899) : omega : 	0.00747310942032 : d : 	(0.189243709551 -0.0474030815409 0.980785280403)
	I19 : dAve : 	(0.00180850656304 -0.000647093995292 0.00718868112899) : omega : 	0.00747310942032 : d : 	(0.183686134869 -0.0657239499823 0.980785280403)
	I20 : dAve : 	(0.00173637180669 -0.000821242702413 0.00718868112899) : omega : 	0.00747310942032 : d : 	(0.176359562295 -0.0834118608569 0.980785280403)
	I21 : dAve : 	(0.00164751484063 -0.000987482393372 0.00718868112899) : omega : 	0.00747310942032 : d : 	(0.167334550727 -0.100296469914 0.980785280403)
	I22 : dAve : 	(0.00154279140604 -0.00114421208907 0.00718868112899) : omega : 	0.00747310942032 : d : 	(0.156698015962 -0.116215169138 0.980785280403)
	I23 : dAve : 	(0.00142321004683 -0.00128992239686 0.00718868112899) : omega : 	0.00747310942032 : d : 	(0.144552393644 -0.131014652754 0.980785280403)
	I24 : dAve : 	(0.00128992239686 -0.00142321004683 0.00718868112899) : omega : 	0.00747310942032 : d : 	(0.131014652754 -0.144552393644 0.980785280403)
	I25 : dAve : 	(0.00114421208907 -0.00154279140604 0.00718868112899) : omega : 	0.00747310942032 : d : 	(0.116215169138 -0.156698015962 0.980785280403)
	I26 : dAve : 	(0.000987482393372 -0.00164751484063 0.00718868112899) : omega : 	0.00747310942032 : d : 	(0.100296469914 -0.167334550727 0.980785280403)
	I27 : dAve : 	(0.000821242702413 -0.00173637180669 0.00718868112899) : omega : 	0.00747310942032 : d : 	(0.0834118608569 -0.176359562295 0.980785280403)
	I28 : dAve : 	(0.000647093995292 -0.00180850656304 0.00718868112899) : omega : 	0.00747310942032 : d : 	(0.0657239499823 -0.183686134869 0.980785280403)
	I29 : dAve : 	(0.000466713419259 -0.00186322441257 0.00718868112899) : omega : 	0.00747310942032 : d : 	(0.0474030815409 -0.189243709551 0.980785280403)
	I30 : dAve : 	(0.000281838137867 -0.00189999839246 0.00718868112899) : omega : 	0.00747310942032 : d : 	(0.0286256955111 -0.19297876386 0.980785280403)
	I31 : dAve : 	(9.42486011392e-05 -0.00191847434919 0.00718868112899) : omega : 	0.00747310942032 : d : 	(0.00957262838512 -0.194855327179 0.980785280403)
	I32 : dAve : 	(-9.42486011392e-05 -0.00191847434919 0.00718868112899) : omega : 	0.00747310942032 : d : 	(-0.00957262838512 -0.194855327179 0.980785280403)
	I33 : dAve : 	(-0.000281838137867 -0.00189999839246 0.00718868112899) : omega : 	0.00747310942032 : d : 	(-0.0286256955111 -0.19297876386 0.980785280403)
	I34 : dAve : 	(-0.000466713419259 -0.00186322441257 0.00718868112899) : omega : 	0.00747310942032 : d : 	(-0.0474030815409 -0.189243709551 0.980785280403)
	I35 : dAve : 	(-0.000647093995292 -0.00180850656304 0.00718868112899) : omega : 	0.00747310942032 : d : 	(-0.0657239499823 -0.183686134869 0.980785280403)
	I36 : dAve : 	(-0.000821242702413 -0.00173637180669 0.00718868112899) : omega : 	0.00747310942032 : d : 	(-0.0834118608569 -0.176359562295 0.980785280403)
	I37 : dAve : 	(-0.000987482393372 -0.00164751484063 0.00718868112899) : omega : 	0.00747310942032 : d : 	(-0.100296469914 -0.167334550727 0.980785280403)
	I38 : dAve : 	(-0.00114421208907 -0.00154279140604 0.00718868112899) : omega : 	0.00747310942032 : d : 	(-0.116215169138 -0.156698015962 0.980785280403)
	I39 : dAve : 	(-0.00128992239686 -0.00142321004683 0.00718868112899) : omega : 	0.00747310942032 : d : 	(-0.131014652754 -0.144552393644 0.980785280403)
	I40 : dAve : 	(-0.00142321004683 -0.00128992239686 0.00718868112899) : omega : 	0.00747310942032 : d : 	(-0.144552393644 -0.131014652754 0.980785280403)
	I41 : dAve : 	(-0.00154279140604 -0.00114421208907 0.00718868112899) : omega : 	0.00747310942032 : d : 	(-0.156698015962 -0.116215169138 0.980785280403)
	I42 : dAve : 	(-0.00164751484063 -0.000987482393372 0.00718868112899) : omega : 	0.00747310942032 : d : 	(-0.167334550727 -0.100296469914 0.980785280403)
	I43 : dAve : 	(-0.00173637180669 -0.000821242702413 0.00718868112899) : omega : 	0.00747310942032 : d : 	(-0.176359562295 -0.0834118608569 0.980785280403)
	I44 : dAve : 	(-0.00180850656304 -0.000647093995292 0.00718868112899) : omega : 	0.00747310942032 : d : 	(-0.183686134869 -0.0657239499823 0.980785280403)
	I45 : dAve : 	(-0.00186322441257 -0.000466713419259 0.00718868112899) : omega : 	0.00747310942032 : d : 	(-0.189243709551 -0.0474030815409 0.980785280403)
	I46 : dAve : 	(-0.00189999839246 -0.000281838137867 0.00718868112899) : omega : 	0.00747310942032 : d : 	(-0.19297876386 -0.0286256955111 0.980785280403)
	I47 : dAve : 	(-0.00191847434919 -9.42486011392e-05 0.00718868112899) : omega : 	0.00747310942032 : d : 	(-0.194855327179 -0.00957262838512 0.980785280403)
	I48 : dAve : 	(-0.00191847434919 9.42486011392e-05 0.00718868112899) : omega : 	0.00747310942032 : d : 	(-0.194855327179 0.00957262838512 0.980785280403)
	I49 : dAve : 	(-0.00189999839246 0.000281838137867 0.00718868112899) : omega : 	0.00747310942032 : d : 	(-0.19297876386 0.0286256955111 0.980785280403)
	I50 : dAve : 	(-0.00186322441257 0.000466713419259 0.00718868112899) : omega : 	0.00747310942032 : d : 	(-0.189243709551 0.0474030815409 0.980785280403)
	I51 : dAve : 	(-0.00180850656304 0.000647093995292 0.00718868112899) : omega : 	0.00747310942032 : d : 	(-0.183686134869 0.0657239499823 0.980785280403)
	I52 : dAve : 	(-0.00173637180669 0.000821242702413 0.00718868112899) : omega : 	0.00747310942032 : d : 	(-0.176359562295 0.0834118608569 0.980785280403)
	I53 : dAve : 	(-0.00164751484063 0.000987482393372 0.00718868112899) : omega : 	0.00747310942032 : d : 	(-0.167334550727 0.100296469914 0.980785280403)
	I54 : dAve : 	(-0.00154279140604 0.00114421208907 0.00718868112899) : omega : 	0.00747310942032 : d : 	(-0.156698015962 0.116215169138 0.980785280403)
	I55 : dAve : 	(-0.00142321004683 0.00128992239686 0.00718868112899) : omega : 	0.00747310942032 : d : 	(-0.144552393644 0.131014652754 0.980785280403)
	I56 : dAve : 	(-0.00128992239686 0.00142321004683 0.00718868112899) : omega : 	0.00747310942032 : d : 	(-0.131014652754 0.144552393644 0.980785280403)
	I57 : dAve : 	(-0.00114421208907 0.00154279140604 0.00718868112899) : omega : 	0.00747310942032 : d : 	(-0.116215169138 0.156698015962 0.980785280403)
	I58 : dAve : 	(-0.000987482393372 0.00164751484063 0.00718868112899) : omega : 	0.00747310942032 : d : 	(-0.100296469914 0.167334550727 0.980785280403)
	I59 : dAve : 	(-0.000821242702413 0.00173637180669 0.00718868112899) : omega : 	0.00747310942032 : d : 	(-0.0834118608569 0.176359562295 0.980785280403)
	I60 : dAve : 	(-0.000647093995292 0.00180850656304 0.00718868112899) : omega : 	0.00747310942032 : d : 	(-0.0657239499823 0.183686134869 0.980785280403)
	I61 : dAve : 	(-0.000466713419259 0.00186322441257 0.00718868112899) : omega : 	0.00747310942032 : d : 	(-0.0474030815409 0.189243709551 0.980785280403)
	I62 : dAve : 	(-0.000281838137867 0.00189999839246 0.00718868112899) : omega : 	0.00747310942032 : d : 	(-0.0286256955111 0.19297876386 0.980785280403)
	I63 : dAve : 	(-9.42486011392e-05 0.00191847434919 0.00718868112899) : omega : 	0.00747310942032 : d : 	(-0.00957262838512 0.194855327179 0.980785280403)
	I64 : dAve : 	(0.000592886480867 0.0120684815666 0.0173550114772) : omega : 	0.0212816150956 : d : 	(0.0272605392598 0.554901024343 0.831469612303)
	I65 : dAve : 	(0.00177294962168 0.0119522554918 0.0173550114772) : omega : 	0.0212816150956 : d : 	(0.0815190838842 0.549557024139 0.831469612303)
	I66 : dAve : 	(0.00293593828845 0.0117209226628 0.0173550114772) : omega : 	0.0212816150956 : d : 	(0.134992555168 0.538920489374 0.831469612303)
	I67 : dAve : 	(0.00407065226456 0.0113767109413 0.0173550114772) : omega : 	0.0212816150956 : d : 	(0.187165974351 0.523093855692 0.831469612303)
	I68 : dAve : 	(0.00516616363411 0.0109229352743 0.0173550114772) : omega : 	0.0212816150956 : d : 	(0.237536882886 0.502229542228 0.831469612303)
	I69 : dAve : 	(0.00621192202375 0.0103639657696 0.0173550114772) : omega : 	0.0212816150956 : d : 	(0.285620181387 0.476528483725 0.831469612303)
	I70 : dAve : 	(0.00719785620852 0.00970518560891 0.0173550114772) : omega : 	0.0212816150956 : d : 	(0.330952801406 0.446238195428 0.831469612303)
	I71 : dAve : 	(0.00811447110325 0.00895293920544 0.0173550114772) : omega : 	0.0212816150956 : d : 	(0.373098165031 0.41165038937 0.831469612303)
	I72 : dAve : 	(0.00895293920544 0.00811447110325 0.0173550114772) : omega : 	0.0212816150956 : d : 	(0.41165038937 0.373098165031 0.831469612303)
	I73 : dAve : 	(0.00970518560891 0.00719785620852 0.0173550114772) : omega : 	0.0212816150956 : d : 	(0.446238195428 0.330952801406 0.831469612303)
	I74 : dAve : 	(0.0103639657696 0.00621192202375 0.0173550114772) : omega : 	0.0212816150956 : d : 	(0.476528483725 0.285620181387 0.831469612303)
	I75 : dAve : 	(0.0109229352743 0.00516616363411 0.0173550114772) : omega : 	0.0212816150956 : d : 	(0.502229542228 0.237536882886 0.831469612303)
	I76 : dAve : 	(0.0113767109413 0.00407065226456 0.0173550114772) : omega : 	0.0212816150956 : d : 	(0.523093855692 0.187165974351 0.831469612303)
	I77 : dAve : 	(0.0117209226628 0.00293593828845 0.0173550114772) : omega : 	0.0212816150956 : d : 	(0.538920489374 0.134992555168 0.831469612303)
	I78 : dAve : 	(0.0119522554918 0.00177294962168 0.0173550114772) : omega : 	0.0212816150956 : d : 	(0.549557024139 0.0815190838842 0.831469612303)
	I79 : dAve : 	(0.0120684815666 0.000592886480867 0.0173550114772) : omega : 	0.0212816150956 : d : 	(0.554901024343 0.0272605392598 0.831469612303)
	I80 : dAve : 	(0.0120684815666 -0.000592886480867 0.0173550114772) : omega : 	0.0212816150956 : d : 	(0.554901024343 -0.0272605392598 0.831469612303)
	I81 : dAve : 	(0.0119522554918 -0.00177294962168 0.0173550114772) : omega : 	0.0212816150956 : d : 	(0.549557024139 -0.0815190838842 0.831469612303)
	I82 : dAve : 	(0.0117209226628 -0.00293593828845 0.0173550114772) : omega : 	0.0212816150956 : d : 	(0.538920489374 -0.134992555168 0.831469612303)
	I83 : dAve : 	(0.0113767109413 -0.00407065226456 0.0173550114772) : omega : 	0.0212816150956 : d : 	(0.523093855692 -0.187165974351 0.831469612303)
	I84 : dAve : 	(0.0109229352743 -0.00516616363411 0.0173550114772) : omega : 	0.0212816150956 : d : 	(0.502229542228 -0.237536882886 0.831469612303)
	I85 : dAve : 	(0.0103639657696 -0.00621192202375 0.0173550114772) : omega : 	0.0212816150956 : d : 	(0.476528483725 -0.285620181387 0.831469612303)
	I86 : dAve : 	(0.00970518560891 -0.00719785620852 0.0173550114772) : omega : 	0.0212816150956 : d : 	(0.446238195428 -0.330952801406 0.831469612303)
	I87 : dAve : 	(0.00895293920544 -0.00811447110325 0.0173550114772) : omega : 	0.0212816150956 : d : 	(0.41165038937 -0.373098165031 0.831469612303)
	I88 : dAve : 	(0.00811447110325 -0.00895293920544 0.0173550114772) : omega : 	0.0212816150956 : d : 	(0.373098165031 -0.41165038937 0.831469612303)
	I89 : dAve : 	(0.00719785620852 -0.00970518560891 0.0173550114772) : omega : 	0.0212816150956 : d : 	(0.330952801406 -0.446238195428 0.831469612303)
	I90 : dAve : 	(0.00621192202375 -0.0103639657696 0.0173550114772) : omega : 	0.0212816150956 : d : 	(0.285620181387 -0.476528483725 0.831469612303)
	I91 : dAve : 	(0.00516616363411 -0.0109229352743 0.0173550114772) : omega : 	0.0212816150956 : d : 	(0.237536882886 -0.502229542228 0.831469612303)
	I92 : dAve : 	(0.00407065226456 -0.0113767109413 0.0173550114772) : omega : 	0.0212816150956 : d : 	(0.187165974351 -0.523093855692 0.831469612303)
	I93 : dAve : 	(0.00293593828845 -0.0117209226628 0.0173550114772) : omega : 	0.0212816150956 : d : 	(0.134992555168 -0.538920489374 0.831469612303)
	I94 : dAve : 	(0.00177294962168 -0.0119522554918 0.0173550114772) : omega : 	0.0212816150956 : d : 	(0.0815190838842 -0.549557024139 0.831469612303)
	I95 : dAve : 	(0.000592886480867 -0.0120684815666 0.0173550114772) : omega : 	0.0212816150956 : d : 	(0.0272605392598 -0.554901024343 0.831469612303)
	I96 : dAve : 	(-0.000592886480867 -0.0120684815666 0.0173550114772) : omega : 	0.0212816150956 : d : 	(-0.0272605392598 -0.554901024343 0.831469612303)
	I97 : dAve : 	(-0.00177294962168 -0.0119522554918 0.0173550114772) : omega : 	0.0212816150956 : d : 	(-0.0815190838842 -0.549557024139 0.831469612303)
	I98 : dAve : 	(-0.00293593828845 -0.0117209226628 0.0173550114772) : omega : 	0.0212816150956 : d : 	(-0.134992555168 -0.538920489374 0.831469612303)
	I99 : dAve : 	(-0.00407065226456 -0.0113767109413 0.0173550114772) : omega : 	0.0212816150956 : d : 	(-0.187165974351 -0.523093855692 0.831469612303)
	I100 : dAve : 	(-0.00516616363411 -0.0109229352743 0.0173550114772) : omega : 	0.0212816150956 : d : 	(-0.237536882886 -0.502229542228 0.831469612303)
	I101 : dAve : 	(-0.00621192202375 -0.0103639657696 0.0173550114772) : omega : 	0.0212816150956 : d : 	(-0.285620181387 -0.476528483725 0.831469612303)
	I102 : dAve : 	(-0.00719785620852 -0.00970518560891 0.0173550114772) : omega : 	0.0212816150956 : d : 	(-0.330952801406 -0.446238195428 0.831469612303)
	I103 : dAve : 	(-0.00811447110325 -0.00895293920544 0.0173550114772) : omega : 	0.0212816150956 : d : 	(-0.373098165031 -0.41165038937 0.831469612303)
	I104 : dAve : 	(-0.00895293920544 -0.00811447110325 0.0173550114772) : omega : 	0.0212816150956 : d : 	(-0.41165038937 -0.373098165031 0.831469612303)
	I105 : dAve : 	(-0.00970518560891 -0.00719785620852 0.0173550114772) : omega : 	0.0212816150956 : d : 	(-0.446238195428 -0.330952801406 0.831469612303)
	I106 : dAve : 	(-0.0103639657696 -0.00621192202375 0.0173550114772) : omega : 	0.0212816150956 : d : 	(-0.476528483725 -0.285620181387 0.831469612303)
	I107 : dAve : 	(-0.0109229352743 -0.00516616363411 0.0173550114772) : omega : 	0.0212816150956 : d : 	(-0.502229542228 -0.237536882886 0.831469612303)
	I108 : dAve : 	(-0.0113767109413 -0.00407065226456 0.0173550114772) : omega : 	0.0212816150956 : d : 	(-0.523093855692 -0.187165974351 0.831469612303)
	I109 : dAve : 	(-0.0117209226628 -0.00293593828845 0.0173550114772) : omega : 	0.0212816150956 : d : 	(-0.538920489374 -0.134992555168 0.831469612303)
	I110 : dAve : 	(-0.0119522554918 -0.00177294962168 0.0173550114772) : omega : 	0.0212816150956 : d : 	(-0.549557024139 -0.0815190838842 0.831469612303)
	I111 : dAve : 	(-0.0120684815666 -0.000592886480867 0.0173550114772) : omega : 	0.0212816150956 : d : 	(-0.554901024343 -0.0272605392598 0.831469612303)
	I112 : dAve : 	(-0.0120684815666 0.000592886480867 0.0173550114772) : omega : 	0.0212816150956 : d : 	(-0.554901024343 0.0272605392598 0.831469612303)
	I113 : dAve : 	(-0.0119522554918 0.00177294962168 0.0173550114772) : omega : 	0.0212816150956 : d : 	(-0.549557024139 0.0815190838842 0.831469612303)
	I114 : dAve : 	(-0.0117209226628 0.00293593828845 0.0173550114772) : omega : 	0.0212816150956 : d : 	(-0.538920489374 0.134992555168 0.831469612303)
	I115 : dAve : 	(-0.0113767109413 0.00407065226456 0.0173550114772) : omega : 	0.0212816150956 : d : 	(-0.523093855692 0.187165974351 0.831469612303)
	I116 : dAve : 	(-0.0109229352743 0.00516616363411 0.0173550114772) : omega : 	0.0212816150956 : d : 	(-0.502229542228 0.237536882886 0.831469612303)
	I117 : dAve : 	(-0.0103639657696 0.00621192202375 0.0173550114772) : omega : 	0.0212816150956 : d : 	(-0.476528483725 0.285620181387 0.831469612303)
	I118 : dAve : 	(-0.00970518560891 0.00719785620852 0.0173550114772) : omega : 	0.0212816150956 : d : 	(-0.446238195428 0.330952801406 0.831469612303)
	I119 : dAve : 	(-0.00895293920544 0.00811447110325 0.0173550114772) : omega : 	0.0212816150956 : d : 	(-0.41165038937 0.373098165031 0.831469612303)
	I120 : dAve : 	(-0.00811447110325 0.00895293920544 0.0173550114772) : omega : 	0.0212816150956 : d : 	(-0.373098165031 0.41165038937 0.831469612303)
	I121 : dAve : 	(-0.00719785620852 0.00970518560891 0.0173550114772) : omega : 	0.0212816150956 : d : 	(-0.330952801406 0.446238195428 0.831469612303)
	I122 : dAve : 	(-0.00621192202375 0.0103639657696 0.0173550114772) : omega : 	0.0212816150956 : d : 	(-0.285620181387 0.476528483725 0.831469612303)
	I123 : dAve : 	(-0.00516616363411 0.0109229352743 0.0173550114772) : omega : 	0.0212816150956 : d : 	(-0.237536882886 0.502229542228 0.831469612303)
	I124 : dAve : 	(-0.00407065226456 0.0113767109413 0.0173550114772) : omega : 	0.0212816150956 : d : 	(-0.187165974351 0.523093855692 0.831469612303)
	I125 : dAve : 	(-0.00293593828845 0.0117209226628 0.0173550114772) : omega : 	0.0212816150956 : d : 	(-0.134992555168 0.538920489374 0.831469612303)
	I126 : dAve : 	(-0.00177294962168 0.0119522554918 0.0173550114772) : omega : 	0.0212816150956 : d : 	(-0.0815190838842 0.549557024139 0.831469612303)
	I127 : dAve : 	(-0.000592886480867 0.0120684815666 0.0173550114772) : omega : 	0.0212816150956 : d : 	(-0.0272605392598 0.554901024343 0.831469612303)
	I128 : dAve : 	(0.00129806693309 0.0264227594316 0.0173550114772) : omega : 	0.031850187791 : d : 	(0.0407982801496 0.83046807074 0.55557023302)
	I129 : dAve : 	(0.00388169970511 0.0261682938141 0.0173550114772) : omega : 	0.031850187791 : d : 	(0.122001930708 0.822470209239 0.55557023302)
	I130 : dAve : 	(0.00642794958701 0.0256618132222 0.0173550114772) : omega : 	0.031850187791 : d : 	(0.202030635981 0.806551510015 0.55557023302)
	I131 : dAve : 	(0.00891229480052 0.0249081953407 0.0173550114772) : omega : 	0.031850187791 : d : 	(0.280113675789 0.782865278843 0.55557023302)
	I132 : dAve : 	(0.0113108097431 0.0239146979219 0.0173550114772) : omega : 	0.031850187791 : d : 	(0.355499067772 0.751639627079 0.55557023302)
	I133 : dAve : 	(0.0136003954048 0.022690888889 0.0173550114772) : omega : 	0.031850187791 : d : 	(0.427460809398 0.713175274818 0.55557023302)
	I134 : dAve : 	(0.015759001824 0.021248554192 0.0173550114772) : omega : 	0.031850187791 : d : 	(0.495305869755 0.667842654799 0.55557023302)
	I135 : dAve : 	(0.0177658404409 0.0196015843026 0.0173550114772) : omega : 	0.031850187791 : d : 	(0.558380863825 0.616078344934 0.55557023302)
	I136 : dAve : 	(0.0196015843026 0.0177658404409 0.0173550114772) : omega : 	0.031850187791 : d : 	(0.616078344934 0.558380863825 0.55557023302)
	I137 : dAve : 	(0.021248554192 0.015759001824 0.0173550114772) : omega : 	0.031850187791 : d : 	(0.667842654799 0.495305869755 0.55557023302)
	I138 : dAve : 	(0.022690888889 0.0136003954048 0.0173550114772) : omega : 	0.031850187791 : d : 	(0.713175274818 0.427460809398 0.55557023302)
	I139 : dAve : 	(0.0239146979219 0.0113108097431 0.0173550114772) : omega : 	0.031850187791 : d : 	(0.751639627079 0.355499067772 0.55557023302)
	I140 : dAve : 	(0.0249081953407 0.00891229480052 0.0173550114772) : omega : 	0.031850187791 : d : 	(0.782865278843 0.280113675789 0.55557023302)
	I141 : dAve : 	(0.0256618132222 0.00642794958701 0.0173550114772) : omega : 	0.031850187791 : d : 	(0.806551510015 0.202030635981 0.55557023302)
	I142 : dAve : 	(0.0261682938141 0.00388169970511 0.0173550114772) : omega : 	0.031850187791 : d : 	(0.822470209239 0.122001930708 0.55557023302)
	I143 : dAve : 	(0.0264227594316 0.00129806693309 0.0173550114772) : omega : 	0.031850187791 : d : 	(0.83046807074 0.0407982801496 0.55557023302)
	I144 : dAve : 	(0.0264227594316 -0.00129806693309 0.0173550114772) : omega : 	0.031850187791 : d : 	(0.83046807074 -0.0407982801496 0.55557023302)
	I145 : dAve : 	(0.0261682938141 -0.00388169970511 0.0173550114772) : omega : 	0.031850187791 : d : 	(0.822470209239 -0.122001930708 0.55557023302)
	I146 : dAve : 	(0.0256618132222 -0.00642794958701 0.0173550114772) : omega : 	0.031850187791 : d : 	(0.806551510015 -0.202030635981 0.55557023302)
	I147 : dAve : 	(0.0249081953407 -0.00891229480052 0.0173550114772) : omega : 	0.031850187791 : d : 	(0.782865278843 -0.280113675789 0.55557023302)
	I148 : dAve : 	(0.0239146979219 -0.0113108097431 0.0173550114772) : omega : 	0.031850187791 : d : 	(0.751639627079 -0.355499067772 0.55557023302)
	I149 : dAve : 	(0.022690888889 -0.0136003954048 0.0173550114772) : omega : 	0.031850187791 : d : 	(0.713175274818 -0.427460809398 0.55557023302)
	I150 : dAve : 	(0.021248554192 -0.015759001824 0.0173550114772) : omega : 	0.031850187791 : d : 	(0.667842654799 -0.495305869755 0.55557023302)
	I151 : dAve : 	(0.0196015843026 -0.0177658404409 0.0173550114772) : omega : 	0.031850187791 : d : 	(0.616078344934 -0.558380863825 0.55557023302)
	I152 : dAve : 	(0.0177658404409 -0.0196015843026 0.0173550114772) : omega : 	0.031850187791 : d : 	(0.558380863825 -0.616078344934 0.55557023302)
	I153 : dAve : 	(0.015759001824 -0.021248554192 0.0173550114772) : omega : 	0.031850187791 : d : 	(0.495305869755 -0.667842654799 0.55557023302)
	I154 : dAve : 	(0.0136003954048 -0.022690888889 0.0173550114772) : omega : 	0.031850187791 : d : 	(0.427460809398 -0.713175274818 0.55557023302)
	I155 : dAve : 	(0.0113108097431 -0.0239146979219 0.0173550114772) : omega : 	0.031850187791 : d : 	(0.355499067772 -0.751639627079 0.55557023302)
	I156 : dAve : 	(0.00891229480052 -0.0249081953407 0.0173550114772) : omega : 	0.031850187791 : d : 	(0.280113675789 -0.782865278843 0.55557023302)
	I157 : dAve : 	(0.00642794958701 -0.0256618132222 0.0173550114772) : omega : 	0.031850187791 : d : 	(0.202030635981 -0.806551510015 0.55557023302)
	I158 : dAve : 	(0.00388169970511 -0.0261682938141 0.0173550114772) : omega : 	0.031850187791 : d : 	(0.122001930708 -0.822470209239 0.55557023302)
	I159 : dAve : 	(0.00129806693309 -0.0264227594316 0.0173550114772) : omega : 	0.031850187791 : d : 	(0.0407982801496 -0.83046807074 0.55557023302)
	I160 : dAve : 	(-0.00129806693309 -0.0264227594316 0.0173550114772) : omega : 	0.031850187791 : d : 	(-0.0407982801496 -0.83046807074 0.55557023302)
	I161 : dAve : 	(-0.00388169970511 -0.0261682938141 0.0173550114772) : omega : 	0.031850187791 : d : 	(-0.122001930708 -0.822470209239 0.55557023302)
	I162 : dAve : 	(-0.00642794958701 -0.0256618132222 0.0173550114772) : omega : 	0.031850187791 : d : 	(-0.202030635981 -0.806551510015 0.55557023302)
	I163 : dAve : 	(-0.00891229480052 -0.0249081953407 0.0173550114772) : omega : 	0.031850187791 : d : 	(-0.280113675789 -0.782865278843 0.55557023302)
	I164 : dAve : 	(-0.0113108097431 -0.0239146979219 0.0173550114772) : omega : 	0.031850187791 : d : 	(-0.355499067772 -0.751639627079 0.55557023302)
	I165 : dAve : 	(-0.0136003954048 -0.022690888889 0.0173550114772) : omega : 	0.031850187791 : d : 	(-0.427460809398 -0.713175274818 0.55557023302)
	I166 : dAve : 	(-0.015759001824 -0.021248554192 0.0173550114772) : omega : 	0.031850187791 : d : 	(-0.495305869755 -0.667842654799 0.55557023302)
	I167 : dAve : 	(-0.0177658404409 -0.0196015843026 0.0173550114772) : omega : 	0.031850187791 : d : 	(-0.558380863825 -0.616078344934 0.55557023302)
	I168 : dAve : 	(-0.0196015843026 -0.0177658404409 0.0173550114772) : omega : 	0.031850187791 : d : 	(-0.616078344934 -0.558380863825 0.55557023302)
	I169 : dAve : 	(-0.021248554192 -0.015759001824 0.0173550114772) : omega : 	0.031850187791 : d : 	(-0.667842654799 -0.495305869755 0.55557023302)
	I170 : dAve : 	(-0.022690888889 -0.0136003954048 0.0173550114772) : omega : 	0.031850187791 : d : 	(-0.713175274818 -0.427460809398 0.55557023302)
	I171 : dAve : 	(-0.0239146979219 -0.0113108097431 0.0173550114772) : omega : 	0.031850187791 : d : 	(-0.751639627079 -0.355499067772 0.55557023302)
	I172 : dAve : 	(-0.0249081953407 -0.00891229480052 0.0173550114772) : omega : 	0.031850187791 : d : 	(-0.782865278843 -0.280113675789 0.55557023302)
	I173 : dAve : 	(-0.0256618132222 -0.00642794958701 0.0173550114772) : omega : 	0.031850187791 : d : 	(-0.806551510015 -0.202030635981 0.55557023302)
	I174 : dAve : 	(-0.0261682938141 -0.00388169970511 0.0173550114772) : omega : 	0.031850187791 : d : 	(-0.822470209239 -0.122001930708 0.55557023302)
	I175 : dAve : 	(-0.0264227594316 -0.00129806693309 0.0173550114772) : omega : 	0.031850187791 : d : 	(-0.83046807074 -0.0407982801496 0.55557023302)
	I176 : dAve : 	(-0.0264227594316 0.00129806693309 0.0173550114772) : omega : 	0.031850187791 : d : 	(-0.83046807074 0.0407982801496 0.55557023302)
	I177 : dAve : 	(-0.0261682938141 0.00388169970511 0.0173550114772) : omega : 	0.031850187791 : d : 	(-0.822470209239 0.122001930708 0.55557023302)
	I178 : dAve : 	(-0.0256618132222 0.00642794958701 0.0173550114772) : omega : 	0.031850187791 : d : 	(-0.806551510015 0.202030635981 0.55557023302)
	I179 : dAve : 	(-0.0249081953407 0.00891229480052 0.0173550114772) : omega : 	0.031850187791 : d : 	(-0.782865278843 0.280113675789 0.55557023302)
	I180 : dAve : 	(-0.0239146979219 0.0113108097431 0.0173550114772) : omega : 	0.031850187791 : d : 	(-0.751639627079 0.355499067772 0.55557023302)
	I181 : dAve : 	(-0.022690888889 0.0136003954048 0.0173550114772) : omega : 	0.031850187791 : d : 	(-0.713175274818 0.427460809398 0.55557023302)
	I182 : dAve : 	(-0.021248554192 0.015759001824 0.0173550114772) : omega : 	0.031850187791 : d : 	(-0.667842654799 0.495305869755 0.55557023302)
	I183 : dAve : 	(-0.0196015843026 0.0177658404409 0.0173550114772) : omega : 	0.031850187791 : d : 	(-0.616078344934 0.558380863825 0.55557023302)
	I184 : dAve : 	(-0.0177658404409 0.0196015843026 0.0173550114772) : omega : 	0.031850187791 : d : 	(-0.558380863825 0.616078344934 0.55557023302)
	I185 : dAve : 	(-0.015759001824 0.021248554192 0.0173550114772) : omega : 	0.031850187791 : d : 	(-0.495305869755 0.667842654799 0.55557023302)
	I186 : dAve : 	(-0.0136003954048 0.022690888889 0.0173550114772) : omega : 	0.031850187791 : d : 	(-0.427460809398 0.713175274818 0.55557023302)
	I187 : dAve : 	(-0.0113108097431 0.0239146979219 0.0173550114772) : omega : 	0.031850187791 : d : 	(-0.355499067772 0.751639627079 0.55557023302)
	I188 : dAve : 	(-0.00891229480052 0.0249081953407 0.0173550114772) : omega : 	0.031850187791 : d : 	(-0.280113675789 0.782865278843 0.55557023302)
	I189 : dAve : 	(-0.00642794958701 0.0256618132222 0.0173550114772) : omega : 	0.031850187791 : d : 	(-0.202030635981 0.806551510015 0.55557023302)
	I190 : dAve : 	(-0.00388169970511 0.0261682938141 0.0173550114772) : omega : 	0.031850187791 : d : 	(-0.122001930708 0.822470209239 0.55557023302)
	I191 : dAve : 	(-0.00129806693309 0.0264227594316 0.0173550114772) : omega : 	0.031850187791 : d : 	(-0.0407982801496 0.83046807074 0.55557023302)
	I192 : dAve : 	(0.00179670481282 0.036572766649 0.00718868112899) : omega : 	0.0375698581178 : d : 	(0.048124852724 0.97960388158 0.195090322016)
	I193 : dAve : 	(0.00537281118893 0.0362205509134 0.00718868112899) : omega : 	0.0375698581178 : d : 	(0.143911089532 0.970169760694 0.195090322016)
	I194 : dAve : 	(0.00889717445621 0.0355195114724 0.00718868112899) : omega : 	0.0375698581178 : d : 	(0.238311383879 0.951392374664 0.195090322016)
	I195 : dAve : 	(0.0123358530698 0.034476399719 0.00718868112899) : omega : 	0.0375698581178 : d : 	(0.330416609324 0.923452559983 0.195090322016)
	I196 : dAve : 	(0.0156557306748 0.0331012613896 0.00718868112899) : omega : 	0.0375698581178 : d : 	(0.419339742198 0.886619392338 0.195090322016)
	I197 : dAve : 	(0.0188248350352 0.031407339818 0.00718868112899) : omega : 	0.0375698581178 : d : 	(0.50422440412 0.841247595269 0.195090322016)
	I198 : dAve : 	(0.0218126459435 0.0294109483949 0.00718868112899) : omega : 	0.0375698581178 : d : 	(0.584253109393 0.787774123985 0.195090322016)
	I199 : dAve : 	(0.0245903891473 0.0271313134612 0.00718868112899) : omega : 	0.0375698581178 : d : 	(0.658655137837 0.726713957246 0.195090322016)
	I200 : dAve : 	(0.0271313134612 0.0245903891473 0.00718868112899) : omega : 	0.0375698581178 : d : 	(0.726713957246 0.658655137837 0.195090322016)
	I201 : dAve : 	(0.0294109483949 0.0218126459435 0.00718868112899) : omega : 	0.0375698581178 : d : 	(0.787774123985 0.584253109393 0.195090322016)
	I202 : dAve : 	(0.031407339818 0.0188248350352 0.00718868112899) : omega : 	0.0375698581178 : d : 	(0.841247595269 0.50422440412 0.195090322016)
	I203 : dAve : 	(0.0331012613896 0.0156557306748 0.00718868112899) : omega : 	0.0375698581178 : d : 	(0.886619392338 0.419339742198 0.195090322016)
	I204 : dAve : 	(0.034476399719 0.0123358530698 0.00718868112899) : omega : 	0.0375698581178 : d : 	(0.923452559983 0.330416609324 0.195090322016)
	I205 : dAve : 	(0.0355195114724 0.00889717445621 0.00718868112899) : omega : 	0.0375698581178 : d : 	(0.951392374664 0.238311383879 0.195090322016)
	I206 : dAve : 	(0.0362205509134 0.00537281118893 0.00718868112899) : omega : 	0.0375698581178 : d : 	(0.970169760694 0.143911089532 0.195090322016)
	I207 : dAve : 	(0.036572766649 0.00179670481282 0.00718868112899) : omega : 	0.0375698581178 : d : 	(0.97960388158 0.048124852724 0.195090322016)
	I208 : dAve : 	(0.036572766649 -0.00179670481282 0.00718868112899) : omega : 	0.0375698581178 : d : 	(0.97960388158 -0.048124852724 0.195090322016)
	I209 : dAve : 	(0.0362205509134 -0.00537281118893 0.00718868112899) : omega : 	0.0375698581178 : d : 	(0.970169760694 -0.143911089532 0.195090322016)
	I210 : dAve : 	(0.0355195114724 -0.00889717445621 0.00718868112899) : omega : 	0.0375698581178 : d : 	(0.951392374664 -0.238311383879 0.195090322016)
	I211 : dAve : 	(0.034476399719 -0.0123358530698 0.00718868112899) : omega : 	0.0375698581178 : d : 	(0.923452559983 -0.330416609324 0.195090322016)
	I212 : dAve : 	(0.0331012613896 -0.0156557306748 0.00718868112899) : omega : 	0.0375698581178 : d : 	(0.886619392338 -0.419339742198 0.195090322016)
	I213 : dAve : 	(0.031407339818 -0.0188248350352 0.00718868112899) : omega : 	0.0375698581178 : d : 	(0.841247595269 -0.50422440412 0.195090322016)
	I214 : dAve : 	(0.0294109483949 -0.0218126459435 0.00718868112899) : omega : 	0.0375698581178 : d : 	(0.787774123985 -0.584253109393 0.195090322016)
	I215 : dAve : 	(0.0271313134612 -0.0245903891473 0.00718868112899) : omega : 	0.0375698581178 : d : 	(0.726713957246 -0.658655137837 0.195090322016)
	I216 : dAve : 	(0.0245903891473 -0.0271313134612 0.00718868112899) : omega : 	0.0375698581178 : d : 	(0.658655137837 -0.726713957246 0.195090322016)
	I217 : dAve : 	(0.0218126459435 -0.0294109483949 0.00718868112899) : omega : 	0.0375698581178 : d : 	(0.584253109393 -0.787774123985 0.195090322016)
	I218 : dAve : 	(0.0188248350352 -0.031407339818 0.00718868112899) : omega : 	0.0375698581178 : d : 	(0.50422440412 -0.841247595269 0.195090322016)
	I219 : dAve : 	(0.0156557306748 -0.0331012613896 0.00718868112899) : omega : 	0.0375698581178 : d : 	(0.419339742198 -0.886619392338 0.195090322016)
	I220 : dAve : 	(0.0123358530698 -0.034476399719 0.00718868112899) : omega : 	0.0375698581178 : d : 	(0.330416609324 -0.923452559983 0.195090322016)
	I221 : dAve : 	(0.00889717445621 -0.0355195114724 0.00718868112899) : omega : 	0.0375698581178 : d : 	(0.238311383879 -0.951392374664 0.195090322016)
	I222 : dAve : 	(0.00537281118893 -0.0362205509134 0.00718868112899) : omega : 	0.0375698581178 : d : 	(0.143911089532 -0.970169760694 0.195090322016)
	I223 : dAve : 	(0.00179670481282 -0.036572766649 0.00718868112899) : omega : 	0.0375698581178 : d : 	(0.048124852724 -0.97960388158 0.195090322016)
	I224 : dAve : 	(-0.00179670481282 -0.036572766649 0.00718868112899) : omega : 	0.0375698581178 : d : 	(-0.048124852724 -0.97960388158 0.195090322016)
	I225 : dAve : 	(-0.00537281118893 -0.0362205509134 0.00718868112899) : omega : 	0.0375698581178 : d : 	(-0.143911089532 -0.970169760694 0.195090322016)
	I226 : dAve : 	(-0.00889717445621 -0.0355195114724 0.00718868112899) : omega : 	0.0375698581178 : d : 	(-0.238311383879 -0.951392374664 0.195090322016)
	I227 : dAve : 	(-0.0123358530698 -0.034476399719 0.00718868112899) : omega : 	0.0375698581178 : d : 	(-0.330416609324 -0.923452559983 0.195090322016)
	I228 : dAve : 	(-0.0156557306748 -0.0331012613896 0.00718868112899) : omega : 	0.0375698581178 : d : 	(-0.419339742198 -0.886619392338 0.195090322016)
	I229 : dAve : 	(-0.0188248350352 -0.031407339818 0.00718868112899) : omega : 	0.0375698581178 : d : 	(-0.50422440412 -0.841247595269 0.195090322016)
	I230 : dAve : 	(-0.0218126459435 -0.0294109483949 0.00718868112899) : omega : 	0.0375698581178 : d : 	(-0.584253109393 -0.787774123985 0.195090322016)
	I231 : dAve : 	(-0.0245903891473 -0.0271313134612 0.00718868112899) : omega : 	0.0375698581178 : d : 	(-0.658655137837 -0.726713957246 0.195090322016)
	I232 : dAve : 	(-0.0271313134612 -0.0245903891473 0.00718868112899) : omega : 	0.0375698581178 : d : 	(-0.726713957246 -0.658655137837 0.195090322016)
	I233 : dAve : 	(-0.0294109483949 -0.0218126459435 0.00718868112899) : omega : 	0.0375698581178 : d : 	(-0.787774123985 -0.584253109393 0.195090322016)
	I234 : dAve : 	(-0.031407339818 -0.0188248350352 0.00718868112899) : omega : 	0.0375698581178 : d : 	(-0.841247595269 -0.50422440412 0.195090322016)
	I235 : dAve : 	(-0.0331012613896 -0.0156557306748 0.00718868112899) : omega : 	0.0375698581178 : d : 	(-0.886619392338 -0.419339742198 0.195090322016)
	I236 : dAve : 	(-0.034476399719 -0.0123358530698 0.00718868112899) : omega : 	0.0375698581178 : d : 	(-0.923452559983 -0.330416609324 0.195090322016)
	I237 : dAve : 	(-0.0355195114724 -0.00889717445621 0.00718868112899) : omega : 	0.0375698581178 : d : 	(-0.951392374664 -0.238311383879 0.195090322016)
	I238 : dAve : 	(-0.0362205509134 -0.00537281118893 0.00718868112899) : omega : 	0.0375698581178 : d : 	(-0.970169760694 -0.143911089532 0.195090322016)
	I239 : dAve : 	(-0.036572766649 -0.00179670481282 0.00718868112899) : omega : 	0.0375698581178 : d : 	(-0.97960388158 -0.048124852724 0.195090322016)
	I240 : dAve : 	(-0.036572766649 0.00179670481282 0.00718868112899) : omega : 	0.0375698581178 : d : 	(-0.97960388158 0.048124852724 0.195090322016)
	I241 : dAve : 	(-0.0362205509134 0.00537281118893 0.00718868112899) : omega : 	0.0375698581178 : d : 	(-0.970169760694 0.143911089532 0.195090322016)
	I242 : dAve : 	(-0.0355195114724 0.00889717445621 0.00718868112899) : omega : 	0.0375698581178 : d : 	(-0.951392374664 0.238311383879 0.195090322016)
	I243 : dAve : 	(-0.034476399719 0.0123358530698 0.00718868112899) : omega : 	0.0375698581178 : d : 	(-0.923452559983 0.330416609324 0.195090322016)
	I244 : dAve : 	(-0.0331012613896 0.0156557306748 0.00718868112899) : omega : 	0.0375698581178 : d : 	(-0.886619392338 0.419339742198 0.195090322016)
	I245 : dAve : 	(-0.031407339818 0.0188248350352 0.00718868112899) : omega : 	0.0375698581178 : d : 	(-0.841247595269 0.50422440412 0.195090322016)
	I246 : dAve : 	(-0.0294109483949 0.0218126459435 0.00718868112899) : omega : 	0.0375698581178 : d : 	(-0.787774123985 0.584253109393 0.195090322016)
	I247 : dAve : 	(-0.0271313134612 0.0245903891473 0.00718868112899) : omega : 	0.0375698581178 : d : 	(-0.726713957246 0.658655137837 0.195090322016)
	I248 : dAve : 	(-0.0245903891473 0.0271313134612 0.00718868112899) : omega : 	0.0375698581178 : d : 	(-0.658655137837 0.726713957246 0.195090322016)
	I249 : dAve : 	(-0.0218126459435 0.0294109483949 0.00718868112899) : omega : 	0.0375698581178 : d : 	(-0.584253109393 0.787774123985 0.195090322016)
	I250 : dAve : 	(-0.0188248350352 0.031407339818 0.00718868112899) : omega : 	0.0375698581178 : d : 	(-0.50422440412 0.841247595269 0.195090322016)
	I251 : dAve : 	(-0.0156557306748 0.0331012613896 0.00718868112899) : omega : 	0.0375698581178 : d : 	(-0.419339742198 0.886619392338 0.195090322016)
	I252 : dAve : 	(-0.0123358530698 0.034476399719 0.00718868112899) : omega : 	0.0375698581178 : d : 	(-0.330416609324 0.923452559983 0.195090322016)
	I253 : dAve : 	(-0.00889717445621 0.0355195114724 0.00718868112899) : omega : 	0.0375698581178 : d : 	(-0.238311383879 0.951392374664 0.195090322016)
	I254 : dAve : 	(-0.00537281118893 0.0362205509134 0.00718868112899) : omega : 	0.0375698581178 : d : 	(-0.143911089532 0.970169760694 0.195090322016)
	I255 : dAve : 	(-0.00179670481282 0.036572766649 0.00718868112899) : omega : 	0.0375698581178 : d : 	(-0.048124852724 0.97960388158 0.195090322016)
	I256 : dAve : 	(0.00179670481282 0.036572766649 -0.00718868112899) : omega : 	0.0375698581178 : d : 	(0.048124852724 0.97960388158 -0.195090322016)
	I257 : dAve : 	(0.00537281118893 0.0362205509134 -0.00718868112899) : omega : 	0.0375698581178 : d : 	(0.143911089532 0.970169760694 -0.195090322016)
	I258 : dAve : 	(0.00889717445621 0.0355195114724 -0.00718868112899) : omega : 	0.0375698581178 : d : 	(0.238311383879 0.951392374664 -0.195090322016)
	I259 : dAve : 	(0.0123358530698 0.034476399719 -0.00718868112899) : omega : 	0.0375698581178 : d : 	(0.330416609324 0.923452559983 -0.195090322016)
	I260 : dAve : 	(0.0156557306748 0.0331012613896 -0.00718868112899) : omega : 	0.0375698581178 : d : 	(0.419339742198 0.886619392338 -0.195090322016)
	I261 : dAve : 	(0.0188248350352 0.031407339818 -0.00718868112899) : omega : 	0.0375698581178 : d : 	(0.50422440412 0.841247595269 -0.195090322016)
	I262 : dAve : 	(0.0218126459435 0.0294109483949 -0.00718868112899) : omega : 	0.0375698581178 : d : 	(0.584253109393 0.787774123985 -0.195090322016)
	I263 : dAve : 	(0.0245903891473 0.0271313134612 -0.00718868112899) : omega : 	0.0375698581178 : d : 	(0.658655137837 0.726713957246 -0.195090322016)
	I264 : dAve : 	(0.0271313134612 0.0245903891473 -0.00718868112899) : omega : 	0.0375698581178 : d : 	(0.726713957246 0.658655137837 -0.195090322016)
	I265 : dAve : 	(0.0294109483949 0.0218126459435 -0.00718868112899) : omega : 	0.0375698581178 : d : 	(0.787774123985 0.584253109393 -0.195090322016)
	I266 : dAve : 	(0.031407339818 0.0188248350352 -0.00718868112899) : omega : 	0.0375698581178 : d : 	(0.841247595269 0.50422440412 -0.195090322016)
	I267 : dAve : 	(0.0331012613896 0.0156557306748 -0.00718868112899) : omega : 	0.0375698581178 : d : 	(0.886619392338 0.419339742198 -0.195090322016)
	I268 : dAve : 	(0.034476399719 0.0123358530698 -0.00718868112899) : omega : 	0.0375698581178 : d : 	(0.923452559983 0.330416609324 -0.195090322016)
	I269 : dAve : 	(0.0355195114724 0.00889717445621 -0.00718868112899) : omega : 	0.0375698581178 : d : 	(0.951392374664 0.238311383879 -0.195090322016)
	I270 : dAve : 	(0.0362205509134 0.00537281118893 -0.00718868112899) : omega : 	0.0375698581178 : d : 	(0.970169760694 0.143911089532 -0.195090322016)
	I271 : dAve : 	(0.036572766649 0.00179670481282 -0.00718868112899) : omega : 	0.0375698581178 : d : 	(0.97960388158 0.048124852724 -0.195090322016)
	I272 : dAve : 	(0.036572766649 -0.00179670481282 -0.00718868112899) : omega : 	0.0375698581178 : d : 	(0.97960388158 -0.048124852724 -0.195090322016)
	I273 : dAve : 	(0.0362205509134 -0.00537281118893 -0.00718868112899) : omega : 	0.0375698581178 : d : 	(0.970169760694 -0.143911089532 -0.195090322016)
	I274 : dAve : 	(0.0355195114724 -0.00889717445621 -0.00718868112899) : omega : 	0.0375698581178 : d : 	(0.951392374664 -0.238311383879 -0.195090322016)
	I275 : dAve : 	(0.034476399719 -0.0123358530698 -0.00718868112899) : omega : 	0.0375698581178 : d : 	(0.923452559983 -0.330416609324 -0.195090322016)
	I276 : dAve : 	(0.0331012613896 -0.0156557306748 -0.00718868112899) : omega : 	0.0375698581178 : d : 	(0.886619392338 -0.419339742198 -0.195090322016)
	I277 : dAve : 	(0.031407339818 -0.0188248350352 -0.00718868112899) : omega : 	0.0375698581178 : d : 	(0.841247595269 -0.50422440412 -0.195090322016)
	I278 : dAve : 	(0.0294109483949 -0.0218126459435 -0.00718868112899) : omega : 	0.0375698581178 : d : 	(0.787774123985 -0.584253109393 -0.195090322016)
	I279 : dAve : 	(0.0271313134612 -0.0245903891473 -0.00718868112899) : omega : 	0.0375698581178 : d : 	(0.726713957246 -0.658655137837 -0.195090322016)
	I280 : dAve : 	(0.0245903891473 -0.0271313134612 -0.00718868112899) : omega : 	0.0375698581178 : d : 	(0.658655137837 -0.726713957246 -0.195090322016)
	I281 : dAve : 	(0.0218126459435 -0.0294109483949 -0.00718868112899) : omega : 	0.0375698581178 : d : 	(0.584253109393 -0.787774123985 -0.195090322016)
	I282 : dAve : 	(0.0188248350352 -0.031407339818 -0.00718868112899) : omega : 	0.0375698581178 : d : 	(0.50422440412 -0.841247595269 -0.195090322016)
	I283 : dAve : 	(0.0156557306748 -0.0331012613896 -0.00718868112899) : omega : 	0.0375698581178 : d : 	(0.419339742198 -0.886619392338 -0.195090322016)
	I284 : dAve : 	(0.0123358530698 -0.034476399719 -0.00718868112899) : omega : 	0.0375698581178 : d : 	(0.330416609324 -0.923452559983 -0.195090322016)
	I285 : dAve : 	(0.00889717445621 -0.0355195114724 -0.00718868112899) : omega : 	0.0375698581178 : d : 	(0.238311383879 -0.951392374664 -0.195090322016)
	I286 : dAve : 	(0.00537281118893 -0.0362205509134 -0.00718868112899) : omega : 	0.0375698581178 : d : 	(0.143911089532 -0.970169760694 -0.195090322016)
	I287 : dAve : 	(0.00179670481282 -0.036572766649 -0.00718868112899) : omega : 	0.0375698581178 : d : 	(0.048124852724 -0.97960388158 -0.195090322016)
	I288 : dAve : 	(-0.00179670481282 -0.036572766649 -0.00718868112899) : omega : 	0.0375698581178 : d : 	(-0.048124852724 -0.97960388158 -0.195090322016)
	I289 : dAve : 	(-0.00537281118893 -0.0362205509134 -0.00718868112899) : omega : 	0.0375698581178 : d : 	(-0.143911089532 -0.970169760694 -0.195090322016)
	I290 : dAve : 	(-0.00889717445621 -0.0355195114724 -0.00718868112899) : omega : 	0.0375698581178 : d : 	(-0.238311383879 -0.951392374664 -0.195090322016)
	I291 : dAve : 	(-0.0123358530698 -0.034476399719 -0.00718868112899) : omega : 	0.0375698581178 : d : 	(-0.330416609324 -0.923452559983 -0.195090322016)
	I292 : dAve : 	(-0.0156557306748 -0.0331012613896 -0.00718868112899) : omega : 	0.0375698581178 : d : 	(-0.419339742198 -0.886619392338 -0.195090322016)
	I293 : dAve : 	(-0.0188248350352 -0.031407339818 -0.00718868112899) : omega : 	0.0375698581178 : d : 	(-0.50422440412 -0.841247595269 -0.195090322016)
	I294 : dAve : 	(-0.0218126459435 -0.0294109483949 -0.00718868112899) : omega : 	0.0375698581178 : d : 	(-0.584253109393 -0.787774123985 -0.195090322016)
	I295 : dAve : 	(-0.0245903891473 -0.0271313134612 -0.00718868112899) : omega : 	0.0375698581178 : d : 	(-0.658655137837 -0.726713957246 -0.195090322016)
	I296 : dAve : 	(-0.0271313134612 -0.0245903891473 -0.00718868112899) : omega : 	0.0375698581178 : d : 	(-0.726713957246 -0.658655137837 -0.195090322016)
	I297 : dAve : 	(-0.0294109483949 -0.0218126459435 -0.00718868112899) : omega : 	0.0375698581178 : d : 	(-0.787774123985 -0.584253109393 -0.195090322016)
	I298 : dAve : 	(-0.031407339818 -0.0188248350352 -0.00718868112899) : omega : 	0.0375698581178 : d : 	(-0.841247595269 -0.50422440412 -0.195090322016)
	I299 : dAve : 	(-0.0331012613896 -0.0156557306748 -0.00718868112899) : omega : 	0.0375698581178 : d : 	(-0.886619392338 -0.419339742198 -0.195090322016)
	I300 : dAve : 	(-0.034476399719 -0.0123358530698 -0.00718868112899) : omega : 	0.0375698581178 : d : 	(-0.923452559983 -0.330416609324 -0.195090322016)
	I301 : dAve : 	(-0.0355195114724 -0.00889717445621 -0.00718868112899) : omega : 	0.0375698581178 : d : 	(-0.951392374664 -0.238311383879 -0.195090322016)
	I302 : dAve : 	(-0.0362205509134 -0.00537281118893 -0.00718868112899) : omega : 	0.0375698581178 : d : 	(-0.970169760694 -0.143911089532 -0.195090322016)
	I303 : dAve : 	(-0.036572766649 -0.00179670481282 -0.00718868112899) : omega : 	0.0375698581178 : d : 	(-0.97960388158 -0.048124852724 -0.195090322016)
	I304 : dAve : 	(-0.036572766649 0.00179670481282 -0.00718868112899) : omega : 	0.0375698581178 : d : 	(-0.97960388158 0.048124852724 -0.195090322016)
	I305 : dAve : 	(-0.0362205509134 0.00537281118893 -0.00718868112899) : omega : 	0.0375698581178 : d : 	(-0.970169760694 0.143911089532 -0.195090322016)
	I306 : dAve : 	(-0.0355195114724 0.00889717445621 -0.00718868112899) : omega : 	0.0375698581178 : d : 	(-0.951392374664 0.238311383879 -0.195090322016)
	I307 : dAve : 	(-0.034476399719 0.0123358530698 -0.00718868112899) : omega : 	0.0375698581178 : d : 	(-0.923452559983 0.330416609324 -0.195090322016)
	I308 : dAve : 	(-0.0331012613896 0.0156557306748 -0.00718868112899) : omega : 	0.0375698581178 : d : 	(-0.886619392338 0.419339742198 -0.195090322016)
	I309 : dAve : 	(-0.031407339818 0.0188248350352 -0.00718868112899) : omega : 	0.0375698581178 : d : 	(-0.841247595269 0.50422440412 -0.195090322016)
	I310 : dAve : 	(-0.0294109483949 0.0218126459435 -0.00718868112899) : omega : 	0.0375698581178 : d : 	(-0.787774123985 0.584253109393 -0.195090322016)
	I311 : dAve : 	(-0.0271313134612 0.0245903891473 -0.00718868112899) : omega : 	0.0375698581178 : d : 	(-0.726713957246 0.658655137837 -0.195090322016)
	I312 : dAve : 	(-0.0245903891473 0.0271313134612 -0.00718868112899) : omega : 	0.0375698581178 : d : 	(-0.658655137837 0.726713957246 -0.195090322016)
	I313 : dAve : 	(-0.0218126459435 0.0294109483949 -0.00718868112899) : omega : 	0.0375698581178 : d : 	(-0.584253109393 0.787774123985 -0.195090322016)
	I314 : dAve : 	(-0.0188248350352 0.031407339818 -0.00718868112899) : omega : 	0.0375698581178 : d : 	(-0.50422440412 0.841247595269 -0.195090322016)
	I315 : dAve : 	(-0.0156557306748 0.0331012613896 -0.00718868112899) : omega : 	0.0375698581178 : d : 	(-0.419339742198 0.886619392338 -0.195090322016)
	I316 : dAve : 	(-0.0123358530698 0.034476399719 -0.00718868112899) : omega : 	0.0375698581178 : d : 	(-0.330416609324 0.923452559983 -0.195090322016)
	I317 : dAve : 	(-0.00889717445621 0.0355195114724 -0.00718868112899) : omega : 	0.0375698581178 : d : 	(-0.238311383879 0.951392374664 -0.195090322016)
	I318 : dAve : 	(-0.00537281118893 0.0362205509134 -0.00718868112899) : omega : 	0.0375698581178 : d : 	(-0.143911089532 0.970169760694 -0.195090322016)
	I319 : dAve : 	(-0.00179670481282 0.036572766649 -0.00718868112899) : omega : 	0.0375698581178 : d : 	(-0.048124852724 0.97960388158 -0.195090322016)
	I320 : dAve : 	(0.00129806693309 0.0264227594316 -0.0173550114772) : omega : 	0.031850187791 : d : 	(0.0407982801496 0.83046807074 -0.55557023302)
	I321 : dAve : 	(0.00388169970511 0.0261682938141 -0.0173550114772) : omega : 	0.031850187791 : d : 	(0.122001930708 0.822470209239 -0.55557023302)
	I322 : dAve : 	(0.00642794958701 0.0256618132222 -0.0173550114772) : omega : 	0.031850187791 : d : 	(0.202030635981 0.806551510015 -0.55557023302)
	I323 : dAve : 	(0.00891229480052 0.0249081953407 -0.0173550114772) : omega : 	0.031850187791 : d : 	(0.280113675789 0.782865278843 -0.55557023302)
	I324 : dAve : 	(0.0113108097431 0.0239146979219 -0.0173550114772) : omega : 	0.031850187791 : d : 	(0.355499067772 0.751639627079 -0.55557023302)
	I325 : dAve : 	(0.0136003954048 0.022690888889 -0.0173550114772) : omega : 	0.031850187791 : d : 	(0.427460809398 0.713175274818 -0.55557023302)
	I326 : dAve : 	(0.015759001824 0.021248554192 -0.0173550114772) : omega : 	0.031850187791 : d : 	(0.495305869755 0.667842654799 -0.55557023302)
	I327 : dAve : 	(0.0177658404409 0.0196015843026 -0.0173550114772) : omega : 	0.031850187791 : d : 	(0.558380863825 0.616078344934 -0.55557023302)
	I328 : dAve : 	(0.0196015843026 0.0177658404409 -0.0173550114772) : omega : 	0.031850187791 : d : 	(0.616078344934 0.558380863825 -0.55557023302)
	I329 : dAve : 	(0.021248554192 0.015759001824 -0.0173550114772) : omega : 	0.031850187791 : d : 	(0.667842654799 0.495305869755 -0.55557023302)
	I330 : dAve : 	(0.022690888889 0.0136003954048 -0.0173550114772) : omega : 	0.031850187791 : d : 	(0.713175274818 0.427460809398 -0.55557023302)
	I331 : dAve : 	(0.0239146979219 0.0113108097431 -0.0173550114772) : omega : 	0.031850187791 : d : 	(0.751639627079 0.355499067772 -0.55557023302)
	I332 : dAve : 	(0.0249081953407 0.00891229480052 -0.0173550114772) : omega : 	0.031850187791 : d : 	(0.782865278843 0.280113675789 -0.55557023302)
	I333 : dAve : 	(0.0256618132222 0.00642794958701 -0.0173550114772) : omega : 	0.031850187791 : d : 	(0.806551510015 0.202030635981 -0.55557023302)
	I334 : dAve : 	(0.0261682938141 0.00388169970511 -0.0173550114772) : omega : 	0.031850187791 : d : 	(0.822470209239 0.122001930708 -0.55557023302)
	I335 : dAve : 	(0.0264227594316 0.00129806693309 -0.0173550114772) : omega : 	0.031850187791 : d : 	(0.83046807074 0.0407982801496 -0.55557023302)
	I336 : dAve : 	(0.0264227594316 -0.00129806693309 -0.0173550114772) : omega : 	0.031850187791 : d : 	(0.83046807074 -0.0407982801496 -0.55557023302)
	I337 : dAve : 	(0.0261682938141 -0.00388169970511 -0.0173550114772) : omega : 	0.031850187791 : d : 	(0.822470209239 -0.122001930708 -0.55557023302)
	I338 : dAve : 	(0.0256618132222 -0.00642794958701 -0.0173550114772) : omega : 	0.031850187791 : d : 	(0.806551510015 -0.202030635981 -0.55557023302)
	I339 : dAve : 	(0.0249081953407 -0.00891229480052 -0.0173550114772) : omega : 	0.031850187791 : d : 	(0.782865278843 -0.280113675789 -0.55557023302)
	I340 : dAve : 	(0.0239146979219 -0.0113108097431 -0.0173550114772) : omega : 	0.031850187791 : d : 	(0.751639627079 -0.355499067772 -0.55557023302)
	I341 : dAve : 	(0.022690888889 -0.0136003954048 -0.0173550114772) : omega : 	0.031850187791 : d : 	(0.713175274818 -0.427460809398 -0.55557023302)
	I342 : dAve : 	(0.021248554192 -0.015759001824 -0.0173550114772) : omega : 	0.031850187791 : d : 	(0.667842654799 -0.495305869755 -0.55557023302)
	I343 : dAve : 	(0.0196015843026 -0.0177658404409 -0.0173550114772) : omega : 	0.031850187791 : d : 	(0.616078344934 -0.558380863825 -0.55557023302)
	I344 : dAve : 	(0.0177658404409 -0.0196015843026 -0.0173550114772) : omega : 	0.031850187791 : d : 	(0.558380863825 -0.616078344934 -0.55557023302)
	I345 : dAve : 	(0.015759001824 -0.021248554192 -0.0173550114772) : omega : 	0.031850187791 : d : 	(0.495305869755 -0.667842654799 -0.55557023302)
	I346 : dAve : 	(0.0136003954048 -0.022690888889 -0.0173550114772) : omega : 	0.031850187791 : d : 	(0.427460809398 -0.713175274818 -0.55557023302)
	I347 : dAve : 	(0.0113108097431 -0.0239146979219 -0.0173550114772) : omega : 	0.031850187791 : d : 	(0.355499067772 -0.751639627079 -0.55557023302)
	I348 : dAve : 	(0.00891229480052 -0.0249081953407 -0.0173550114772) : omega : 	0.031850187791 : d : 	(0.280113675789 -0.782865278843 -0.55557023302)
	I349 : dAve : 	(0.00642794958701 -0.0256618132222 -0.0173550114772) : omega : 	0.031850187791 : d : 	(0.202030635981 -0.806551510015 -0.55557023302)
	I350 : dAve : 	(0.00388169970511 -0.0261682938141 -0.0173550114772) : omega : 	0.031850187791 : d : 	(0.122001930708 -0.822470209239 -0.55557023302)
	I351 : dAve : 	(0.00129806693309 -0.0264227594316 -0.0173550114772) : omega : 	0.031850187791 : d : 	(0.0407982801496 -0.83046807074 -0.55557023302)
	I352 : dAve : 	(-0.00129806693309 -0.0264227594316 -0.0173550114772) : omega : 	0.031850187791 : d : 	(-0.0407982801496 -0.83046807074 -0.55557023302)
	I353 : dAve : 	(-0.00388169970511 -0.0261682938141 -0.0173550114772) : omega : 	0.031850187791 : d : 	(-0.122001930708 -0.822470209239 -0.55557023302)
	I354 : dAve : 	(-0.00642794958701 -0.0256618132222 -0.0173550114772) : omega : 	0.031850187791 : d : 	(-0.202030635981 -0.806551510015 -0.55557023302)
	I355 : dAve : 	(-0.00891229480052 -0.0249081953407 -0.0173550114772) : omega : 	0.031850187791 : d : 	(-0.280113675789 -0.782865278843 -0.55557023302)
	I356 : dAve : 	(-0.0113108097431 -0.0239146979219 -0.0173550114772) : omega : 	0.031850187791 : d : 	(-0.355499067772 -0.751639627079 -0.55557023302)
	I357 : dAve : 	(-0.0136003954048 -0.022690888889 -0.0173550114772) : omega : 	0.031850187791 : d : 	(-0.427460809398 -0.713175274818 -0.55557023302)
	I358 : dAve : 	(-0.015759001824 -0.021248554192 -0.0173550114772) : omega : 	0.031850187791 : d : 	(-0.495305869755 -0.667842654799 -0.55557023302)
	I359 : dAve : 	(-0.0177658404409 -0.0196015843026 -0.0173550114772) : omega : 	0.031850187791 : d : 	(-0.558380863825 -0.616078344934 -0.55557023302)
	I360 : dAve : 	(-0.0196015843026 -0.0177658404409 -0.0173550114772) : omega : 	0.031850187791 : d : 	(-0.616078344934 -0.558380863825 -0.55557023302)
	I361 : dAve : 	(-0.021248554192 -0.015759001824 -0.0173550114772) : omega : 	0.031850187791 : d : 	(-0.667842654799 -0.495305869755 -0.55557023302)
	I362 : dAve : 	(-0.022690888889 -0.0136003954048 -0.0173550114772) : omega : 	0.031850187791 : d : 	(-0.713175274818 -0.427460809398 -0.55557023302)
	I363 : dAve : 	(-0.0239146979219 -0.0113108097431 -0.0173550114772) : omega : 	0.031850187791 : d : 	(-0.751639627079 -0.355499067772 -0.55557023302)
	I364 : dAve : 	(-0.0249081953407 -0.00891229480052 -0.0173550114772) : omega : 	0.031850187791 : d : 	(-0.782865278843 -0.280113675789 -0.55557023302)
	I365 : dAve : 	(-0.0256618132222 -0.00642794958701 -0.0173550114772) : omega : 	0.031850187791 : d : 	(-0.806551510015 -0.202030635981 -0.55557023302)
	I366 : dAve : 	(-0.0261682938141 -0.00388169970511 -0.0173550114772) : omega : 	0.031850187791 : d : 	(-0.822470209239 -0.122001930708 -0.55557023302)
	I367 : dAve : 	(-0.0264227594316 -0.00129806693309 -0.0173550114772) : omega : 	0.031850187791 : d : 	(-0.83046807074 -0.0407982801496 -0.55557023302)
	I368 : dAve : 	(-0.0264227594316 0.00129806693309 -0.0173550114772) : omega : 	0.031850187791 : d : 	(-0.83046807074 0.0407982801496 -0.55557023302)
	I369 : dAve : 	(-0.0261682938141 0.00388169970511 -0.0173550114772) : omega : 	0.031850187791 : d : 	(-0.822470209239 0.122001930708 -0.55557023302)
	I370 : dAve : 	(-0.0256618132222 0.00642794958701 -0.0173550114772) : omega : 	0.031850187791 : d : 	(-0.806551510015 0.202030635981 -0.55557023302)
	I371 : dAve : 	(-0.0249081953407 0.00891229480052 -0.0173550114772) : omega : 	0.031850187791 : d : 	(-0.782865278843 0.280113675789 -0.55557023302)
	I372 : dAve : 	(-0.0239146979219 0.0113108097431 -0.0173550114772) : omega : 	0.031850187791 : d : 	(-0.751639627079 0.355499067772 -0.55557023302)
	I373 : dAve : 	(-0.022690888889 0.0136003954048 -0.0173550114772) : omega : 	0.031850187791 : d : 	(-0.713175274818 0.427460809398 -0.55557023302)
	I374 : dAve : 	(-0.021248554192 0.015759001824 -0.0173550114772) : omega : 	0.031850187791 : d : 	(-0.667842654799 0.495305869755 -0.55557023302)
	I375 : dAve : 	(-0.0196015843026 0.0177658404409 -0.0173550114772) : omega : 	0.031850187791 : d : 	(-0.616078344934 0.558380863825 -0.55557023302)
	I376 : dAve : 	(-0.0177658404409 0.0196015843026 -0.0173550114772) : omega : 	0.031850187791 : d : 	(-0.558380863825 0.616078344934 -0.55557023302)
	I377 : dAve : 	(-0.015759001824 0.021248554192 -0.0173550114772) : omega : 	0.031850187791 : d : 	(-0.495305869755 0.667842654799 -0.55557023302)
	I378 : dAve : 	(-0.0136003954048 0.022690888889 -0.0173550114772) : omega : 	0.031850187791 : d : 	(-0.427460809398 0.713175274818 -0.55557023302)
	I379 : dAve : 	(-0.0113108097431 0.0239146979219 -0.0173550114772) : omega : 	0.031850187791 : d : 	(-0.355499067772 0.751639627079 -0.55557023302)
	I380 : dAve : 	(-0.00891229480052 0.0249081953407 -0.0173550114772) : omega : 	0.031850187791 : d : 	(-0.280113675789 0.782865278843 -0.55557023302)
	I381 : dAve : 	(-0.00642794958701 0.0256618132222 -0.0173550114772) : omega : 	0.031850187791 : d : 	(-0.202030635981 0.806551510015 -0.55557023302)
	I382 : dAve : 	(-0.00388169970511 0.0261682938141 -0.0173550114772) : omega : 	0.031850187791 : d : 	(-0.122001930708 0.822470209239 -0.55557023302)
	I383 : dAve : 	(-0.00129806693309 0.0264227594316 -0.0173550114772) : omega : 	0.031850187791 : d : 	(-0.0407982801496 0.83046807074 -0.55557023302)
	I384 : dAve : 	(0.000592886480867 0.0120684815666 -0.0173550114772) : omega : 	0.0212816150956 : d : 	(0.0272605392598 0.554901024343 -0.831469612303)
	I385 : dAve : 	(0.00177294962168 0.0119522554918 -0.0173550114772) : omega : 	0.0212816150956 : d : 	(0.0815190838842 0.549557024139 -0.831469612303)
	I386 : dAve : 	(0.00293593828845 0.0117209226628 -0.0173550114772) : omega : 	0.0212816150956 : d : 	(0.134992555168 0.538920489374 -0.831469612303)
	I387 : dAve : 	(0.00407065226456 0.0113767109413 -0.0173550114772) : omega : 	0.0212816150956 : d : 	(0.187165974351 0.523093855692 -0.831469612303)
	I388 : dAve : 	(0.00516616363411 0.0109229352743 -0.0173550114772) : omega : 	0.0212816150956 : d : 	(0.237536882886 0.502229542228 -0.831469612303)
	I389 : dAve : 	(0.00621192202375 0.0103639657696 -0.0173550114772) : omega : 	0.0212816150956 : d : 	(0.285620181387 0.476528483725 -0.831469612303)
	I390 : dAve : 	(0.00719785620852 0.00970518560891 -0.0173550114772) : omega : 	0.0212816150956 : d : 	(0.330952801406 0.446238195428 -0.831469612303)
	I391 : dAve : 	(0.00811447110325 0.00895293920544 -0.0173550114772) : omega : 	0.0212816150956 : d : 	(0.373098165031 0.41165038937 -0.831469612303)
	I392 : dAve : 	(0.00895293920544 0.00811447110325 -0.0173550114772) : omega : 	0.0212816150956 : d : 	(0.41165038937 0.373098165031 -0.831469612303)
	I393 : dAve : 	(0.00970518560891 0.00719785620852 -0.0173550114772) : omega : 	0.0212816150956 : d : 	(0.446238195428 0.330952801406 -0.831469612303)
	I394 : dAve : 	(0.0103639657696 0.00621192202375 -0.0173550114772) : omega : 	0.0212816150956 : d : 	(0.476528483725 0.285620181387 -0.831469612303)
	I395 : dAve : 	(0.0109229352743 0.00516616363411 -0.0173550114772) : omega : 	0.0212816150956 : d : 	(0.502229542228 0.237536882886 -0.831469612303)
	I396 : dAve : 	(0.0113767109413 0.00407065226456 -0.0173550114772) : omega : 	0.0212816150956 : d : 	(0.523093855692 0.187165974351 -0.831469612303)
	I397 : dAve : 	(0.0117209226628 0.00293593828845 -0.0173550114772) : omega : 	0.0212816150956 : d : 	(0.538920489374 0.134992555168 -0.831469612303)
	I398 : dAve : 	(0.0119522554918 0.00177294962168 -0.0173550114772) : omega : 	0.0212816150956 : d : 	(0.549557024139 0.0815190838842 -0.831469612303)
	I399 : dAve : 	(0.0120684815666 0.000592886480867 -0.0173550114772) : omega : 	0.0212816150956 : d : 	(0.554901024343 0.0272605392598 -0.831469612303)
	I400 : dAve : 	(0.0120684815666 -0.000592886480867 -0.0173550114772) : omega : 	0.0212816150956 : d : 	(0.554901024343 -0.0272605392598 -0.831469612303)
	I401 : dAve : 	(0.0119522554918 -0.00177294962168 -0.0173550114772) : omega : 	0.0212816150956 : d : 	(0.549557024139 -0.0815190838842 -0.831469612303)
	I402 : dAve : 	(0.0117209226628 -0.00293593828845 -0.0173550114772) : omega : 	0.0212816150956 : d : 	(0.538920489374 -0.134992555168 -0.831469612303)
	I403 : dAve : 	(0.0113767109413 -0.00407065226456 -0.0173550114772) : omega : 	0.0212816150956 : d : 	(0.523093855692 -0.187165974351 -0.831469612303)
	I404 : dAve : 	(0.0109229352743 -0.00516616363411 -0.0173550114772) : omega : 	0.0212816150956 : d : 	(0.502229542228 -0.237536882886 -0.831469612303)
	I405 : dAve : 	(0.0103639657696 -0.00621192202375 -0.0173550114772) : omega : 	0.0212816150956 : d : 	(0.476528483725 -0.285620181387 -0.831469612303)
	I406 : dAve : 	(0.00970518560891 -0.00719785620852 -0.0173550114772) : omega : 	0.0212816150956 : d : 	(0.446238195428 -0.330952801406 -0.831469612303)
	I407 : dAve : 	(0.00895293920544 -0.00811447110325 -0.0173550114772) : omega : 	0.0212816150956 : d : 	(0.41165038937 -0.373098165031 -0.831469612303)
	I408 : dAve : 	(0.00811447110325 -0.00895293920544 -0.0173550114772) : omega : 	0.0212816150956 : d : 	(0.373098165031 -0.41165038937 -0.831469612303)
	I409 : dAve : 	(0.00719785620852 -0.00970518560891 -0.0173550114772) : omega : 	0.0212816150956 : d : 	(0.330952801406 -0.446238195428 -0.831469612303)
	I410 : dAve : 	(0.00621192202375 -0.0103639657696 -0.0173550114772) : omega : 	0.0212816150956 : d : 	(0.285620181387 -0.476528483725 -0.831469612303)
	I411 : dAve : 	(0.00516616363411 -0.0109229352743 -0.0173550114772) : omega : 	0.0212816150956 : d : 	(0.237536882886 -0.502229542228 -0.831469612303)
	I412 : dAve : 	(0.00407065226456 -0.0113767109413 -0.0173550114772) : omega : 	0.0212816150956 : d : 	(0.187165974351 -0.523093855692 -0.831469612303)
	I413 : dAve : 	(0.00293593828845 -0.0117209226628 -0.0173550114772) : omega : 	0.0212816150956 : d : 	(0.134992555168 -0.538920489374 -0.831469612303)
	I414 : dAve : 	(0.00177294962168 -0.0119522554918 -0.0173550114772) : omega : 	0.0212816150956 : d : 	(0.0815190838842 -0.549557024139 -0.831469612303)
	I415 : dAve : 	(0.000592886480867 -0.0120684815666 -0.0173550114772) : omega : 	0.0212816150956 : d : 	(0.0272605392598 -0.554901024343 -0.831469612303)
	I416 : dAve : 	(-0.000592886480867 -0.0120684815666 -0.0173550114772) : omega : 	0.0212816150956 : d : 	(-0.0272605392598 -0.554901024343 -0.831469612303)
	I417 : dAve : 	(-0.00177294962168 -0.0119522554918 -0.0173550114772) : omega : 	0.0212816150956 : d : 	(-0.0815190838842 -0.549557024139 -0.831469612303)
	I418 : dAve : 	(-0.00293593828845 -0.0117209226628 -0.0173550114772) : omega : 	0.0212816150956 : d : 	(-0.134992555168 -0.538920489374 -0.831469612303)
	I419 : dAve : 	(-0.00407065226456 -0.0113767109413 -0.0173550114772) : omega : 	0.0212816150956 : d : 	(-0.187165974351 -0.523093855692 -0.831469612303)
	I420 : dAve : 	(-0.00516616363411 -0.0109229352743 -0.0173550114772) : omega : 	0.0212816150956 : d : 	(-0.237536882886 -0.502229542228 -0.831469612303)
	I421 : dAve : 	(-0.00621192202375 -0.0103639657696 -0.0173550114772) : omega : 	0.0212816150956 : d : 	(-0.285620181387 -0.476528483725 -0.831469612303)
	I422 : dAve : 	(-0.00719785620852 -0.00970518560891 -0.0173550114772) : omega : 	0.0212816150956 : d : 	(-0.330952801406 -0.446238195428 -0.831469612303)
	I423 : dAve : 	(-0.00811447110325 -0.00895293920544 -0.0173550114772) : omega : 	0.0212816150956 : d : 	(-0.373098165031 -0.41165038937 -0.831469612303)
	I424 : dAve : 	(-0.00895293920544 -0.00811447110325 -0.0173550114772) : omega : 	0.0212816150956 : d : 	(-0.41165038937 -0.373098165031 -0.831469612303)
	I425 : dAve : 	(-0.00970518560891 -0.00719785620852 -0.0173550114772) : omega : 	0.0212816150956 : d : 	(-0.446238195428 -0.330952801406 -0.831469612303)
	I426 : dAve : 	(-0.0103639657696 -0.00621192202375 -0.0173550114772) : omega : 	0.0212816150956 : d : 	(-0.476528483725 -0.285620181387 -0.831469612303)
	I427 : dAve : 	(-0.0109229352743 -0.00516616363411 -0.0173550114772) : omega : 	0.0212816150956 : d : 	(-0.502229542228 -0.237536882886 -0.831469612303)
	I428 : dAve : 	(-0.0113767109413 -0.00407065226456 -0.0173550114772) : omega : 	0.0212816150956 : d : 	(-0.523093855692 -0.187165974351 -0.831469612303)
	I429 : dAve : 	(-0.0117209226628 -0.00293593828845 -0.0173550114772) : omega : 	0.0212816150956 : d : 	(-0.538920489374 -0.134992555168 -0.831469612303)
	I430 : dAve : 	(-0.0119522554918 -0.00177294962168 -0.0173550114772) : omega : 	0.0212816150956 : d : 	(-0.549557024139 -0.0815190838842 -0.831469612303)
	I431 : dAve : 	(-0.0120684815666 -0.000592886480867 -0.0173550114772) : omega : 	0.0212816150956 : d : 	(-0.554901024343 -0.0272605392598 -0.831469612303)
	I432 : dAve : 	(-0.0120684815666 0.000592886480867 -0.0173550114772) : omega : 	0.0212816150956 : d : 	(-0.554901024343 0.0272605392598 -0.831469612303)
	I433 : dAve : 	(-0.0119522554918 0.00177294962168 -0.0173550114772) : omega : 	0.0212816150956 : d : 	(-0.549557024139 0.0815190838842 -0.831469612303)
	I434 : dAve : 	(-0.0117209226628 0.00293593828845 -0.0173550114772) : omega : 	0.0212816150956 : d : 	(-0.538920489374 0.134992555168 -0.831469612303)
	I435 : dAve : 	(-0.0113767109413 0.00407065226456 -0.0173550114772) : omega : 	0.0212816150956 : d : 	(-0.523093855692 0.187165974351 -0.831469612303)
	I436 : dAve : 	(-0.0109229352743 0.00516616363411 -0.0173550114772) : omega : 	0.0212816150956 : d : 	(-0.502229542228 0.237536882886 -0.831469612303)
	I437 : dAve : 	(-0.0103639657696 0.00621192202375 -0.0173550114772) : omega : 	0.0212816150956 : d : 	(-0.476528483725 0.285620181387 -0.831469612303)
	I438 : dAve : 	(-0.00970518560891 0.00719785620852 -0.0173550114772) : omega : 	0.0212816150956 : d : 	(-0.446238195428 0.330952801406 -0.831469612303)
	I439 : dAve : 	(-0.00895293920544 0.00811447110325 -0.0173550114772) : omega : 	0.0212816150956 : d : 	(-0.41165038937 0.373098165031 -0.831469612303)
	I440 : dAve : 	(-0.00811447110325 0.00895293920544 -0.0173550114772) : omega : 	0.0212816150956 : d : 	(-0.373098165031 0.41165038937 -0.831469612303)
	I441 : dAve : 	(-0.00719785620852 0.00970518560891 -0.0173550114772) : omega : 	0.0212816150956 : d : 	(-0.330952801406 0.446238195428 -0.831469612303)
	I442 : dAve : 	(-0.00621192202375 0.0103639657696 -0.0173550114772) : omega : 	0.0212816150956 : d : 	(-0.285620181387 0.476528483725 -0.831469612303)
	I443 : dAve : 	(-0.00516616363411 0.0109229352743 -0.0173550114772) : omega : 	0.0212816150956 : d : 	(-0.237536882886 0.502229542228 -0.831469612303)
	I444 : dAve : 	(-0.00407065226456 0.0113767109413 -0.0173550114772) : omega : 	0.0212816150956 : d : 	(-0.187165974351 0.523093855692 -0.831469612303)
	I445 : dAve : 	(-0.00293593828845 0.0117209226628 -0.0173550114772) : omega : 	0.0212816150956 : d : 	(-0.134992555168 0.538920489374 -0.831469612303)
	I446 : dAve : 	(-0.00177294962168 0.0119522554918 -0.0173550114772) : omega : 	0.0212816150956 : d : 	(-0.0815190838842 0.549557024139 -0.831469612303)
	I447 : dAve : 	(-0.000592886480867 0.0120684815666 -0.0173550114772) : omega : 	0.0212816150956 : d : 	(-0.0272605392598 0.554901024343 -0.831469612303)
	I448 : dAve : 	(9.42486011392e-05 0.00191847434919 -0.00718868112899) : omega : 	0.00747310942032 : d : 	(0.00957262838512 0.194855327179 -0.980785280403)
	I449 : dAve : 	(0.000281838137867 0.00189999839246 -0.00718868112899) : omega : 	0.00747310942032 : d : 	(0.0286256955111 0.19297876386 -0.980785280403)
	I450 : dAve : 	(0.000466713419259 0.00186322441257 -0.00718868112899) : omega : 	0.00747310942032 : d : 	(0.0474030815409 0.189243709551 -0.980785280403)
	I451 : dAve : 	(0.000647093995292 0.00180850656304 -0.00718868112899) : omega : 	0.00747310942032 : d : 	(0.0657239499823 0.183686134869 -0.980785280403)
	I452 : dAve : 	(0.000821242702413 0.00173637180669 -0.00718868112899) : omega : 	0.00747310942032 : d : 	(0.0834118608569 0.176359562295 -0.980785280403)
	I453 : dAve : 	(0.000987482393372 0.00164751484063 -0.00718868112899) : omega : 	0.00747310942032 : d : 	(0.100296469914 0.167334550727 -0.980785280403)
	I454 : dAve : 	(0.00114421208907 0.00154279140604 -0.00718868112899) : omega : 	0.00747310942032 : d : 	(0.116215169138 0.156698015962 -0.980785280403)
	I455 : dAve : 	(0.00128992239686 0.00142321004683 -0.00718868112899) : omega : 	0.00747310942032 : d : 	(0.131014652754 0.144552393644 -0.980785280403)
	I456 : dAve : 	(0.00142321004683 0.00128992239686 -0.00718868112899) : omega : 	0.00747310942032 : d : 	(0.144552393644 0.131014652754 -0.980785280403)
	I457 : dAve : 	(0.00154279140604 0.00114421208907 -0.00718868112899) : omega : 	0.00747310942032 : d : 	(0.156698015962 0.116215169138 -0.980785280403)
	I458 : dAve : 	(0.00164751484063 0.000987482393372 -0.00718868112899) : omega : 	0.00747310942032 : d : 	(0.167334550727 0.100296469914 -0.980785280403)
	I459 : dAve : 	(0.00173637180669 0.000821242702413 -0.00718868112899) : omega : 	0.00747310942032 : d : 	(0.176359562295 0.0834118608569 -0.980785280403)
	I460 : dAve : 	(0.00180850656304 0.000647093995292 -0.00718868112899) : omega : 	0.00747310942032 : d : 	(0.183686134869 0.0657239499823 -0.980785280403)
	I461 : dAve : 	(0.00186322441257 0.000466713419259 -0.00718868112899) : omega : 	0.00747310942032 : d : 	(0.189243709551 0.0474030815409 -0.980785280403)
	I462 : dAve : 	(0.00189999839246 0.000281838137867 -0.00718868112899) : omega : 	0.00747310942032 : d : 	(0.19297876386 0.0286256955111 -0.980785280403)
	I463 : dAve : 	(0.00191847434919 9.42486011392e-05 -0.00718868112899) : omega : 	0.00747310942032 : d : 	(0.194855327179 0.00957262838512 -0.980785280403)
	I464 : dAve : 	(0.00191847434919 -9.42486011392e-05 -0.00718868112899) : omega : 	0.00747310942032 : d : 	(0.194855327179 -0.00957262838512 -0.980785280403)
	I465 : dAve : 	(0.00189999839246 -0.000281838137867 -0.00718868112899) : omega : 	0.00747310942032 : d : 	(0.19297876386 -0.0286256955111 -0.980785280403)
	I466 : dAve : 	(0.00186322441257 -0.000466713419259 -0.00718868112899) : omega : 	0.00747310942032 : d : 	(0.189243709551 -0.0474030815409 -0.980785280403)
	I467 : dAve : 	(0.00180850656304 -0.000647093995292 -0.00718868112899) : omega : 	0.00747310942032 : d : 	(0.183686134869 -0.0657239499823 -0.980785280403)
	I468 : dAve : 	(0.00173637180669 -0.000821242702413 -0.00718868112899) : omega : 	0.00747310942032 : d : 	(0.176359562295 -0.0834118608569 -0.980785280403)
	I469 : dAve : 	(0.00164751484063 -0.000987482393372 -0.00718868112899) : omega : 	0.00747310942032 : d : 	(0.167334550727 -0.100296469914 -0.980785280403)
	I470 : dAve : 	(0.00154279140604 -0.00114421208907 -0.00718868112899) : omega : 	0.00747310942032 : d : 	(0.156698015962 -0.116215169138 -0.980785280403)
	I471 : dAve : 	(0.00142321004683 -0.00128992239686 -0.00718868112899) : omega : 	0.00747310942032 : d : 	(0.144552393644 -0.131014652754 -0.980785280403)
	I472 : dAve : 	(0.00128992239686 -0.00142321004683 -0.00718868112899) : omega : 	0.00747310942032 : d : 	(0.131014652754 -0.144552393644 -0.980785280403)
	I473 : dAve : 	(0.00114421208907 -0.00154279140604 -0.00718868112899) : omega : 	0.00747310942032 : d : 	(0.116215169138 -0.156698015962 -0.980785280403)
	I474 : dAve : 	(0.000987482393372 -0.00164751484063 -0.00718868112899) : omega : 	0.00747310942032 : d : 	(0.100296469914 -0.167334550727 -0.980785280403)
	I475 : dAve : 	(0.000821242702413 -0.00173637180669 -0.00718868112899) : omega : 	0.00747310942032 : d : 	(0.0834118608569 -0.176359562295 -0.980785280403)
	I476 : dAve : 	(0.000647093995292 -0.00180850656304 -0.00718868112899) : omega : 	0.00747310942032 : d : 	(0.0657239499823 -0.183686134869 -0.980785280403)
	I477 : dAve : 	(0.000466713419259 -0.00186322441257 -0.00718868112899) : omega : 	0.00747310942032 : d : 	(0.0474030815409 -0.189243709551 -0.980785280403)
	I478 : dAve : 	(0.000281838137867 -0.00189999839246 -0.00718868112899) : omega : 	0.00747310942032 : d : 	(0.0286256955111 -0.19297876386 -0.980785280403)
	I479 : dAve : 	(9.42486011392e-05 -0.00191847434919 -0.00718868112899) : omega : 	0.00747310942032 : d : 	(0.00957262838512 -0.194855327179 -0.980785280403)
	I480 : dAve : 	(-9.42486011392e-05 -0.00191847434919 -0.00718868112899) : omega : 	0.00747310942032 : d : 	(-0.00957262838512 -0.194855327179 -0.980785280403)
	I481 : dAve : 	(-0.000281838137867 -0.00189999839246 -0.00718868112899) : omega : 	0.00747310942032 : d : 	(-0.0286256955111 -0.19297876386 -0.980785280403)
	I482 : dAve : 	(-0.000466713419259 -0.00186322441257 -0.00718868112899) : omega : 	0.00747310942032 : d : 	(-0.0474030815409 -0.189243709551 -0.980785280403)
	I483 : dAve : 	(-0.000647093995292 -0.00180850656304 -0.00718868112899) : omega : 	0.00747310942032 : d : 	(-0.0657239499823 -0.183686134869 -0.980785280403)
	I484 : dAve : 	(-0.000821242702413 -0.00173637180669 -0.00718868112899) : omega : 	0.00747310942032 : d : 	(-0.0834118608569 -0.176359562295 -0.980785280403)
	I485 : dAve : 	(-0.000987482393372 -0.00164751484063 -0.00718868112899) : omega : 	0.00747310942032 : d : 	(-0.100296469914 -0.167334550727 -0.980785280403)
	I486 : dAve : 	(-0.00114421208907 -0.00154279140604 -0.00718868112899) : omega : 	0.00747310942032 : d : 	(-0.116215169138 -0.156698015962 -0.980785280403)
	I487 : dAve : 	(-0.00128992239686 -0.00142321004683 -0.00718868112899) : omega : 	0.00747310942032 : d : 	(-0.131014652754 -0.144552393644 -0.980785280403)
	I488 : dAve : 	(-0.00142321004683 -0.00128992239686 -0.00718868112899) : omega : 	0.00747310942032 : d : 	(-0.144552393644 -0.131014652754 -0.980785280403)
	I489 : dAve : 	(-0.00154279140604 -0.00114421208907 -0.00718868112899) : omega : 	0.00747310942032 : d : 	(-0.156698015962 -0.116215169138 -0.980785280403)
	I490 : dAve : 	(-0.00164751484063 -0.000987482393372 -0.00718868112899) : omega : 	0.00747310942032 : d : 	(-0.167334550727 -0.100296469914 -0.980785280403)
	I491 : dAve : 	(-0.00173637180669 -0.000821242702413 -0.00718868112899) : omega : 	0.00747310942032 : d : 	(-0.176359562295 -0.0834118608569 -0.980785280403)
	I492 : dAve : 	(-0.00180850656304 -0.000647093995292 -0.00718868112899) : omega : 	0.00747310942032 : d : 	(-0.183686134869 -0.0657239499823 -0.980785280403)
	I493 : dAve : 	(-0.00186322441257 -0.000466713419259 -0.00718868112899) : omega : 	0.00747310942032 : d : 	(-0.189243709551 -0.0474030815409 -0.980785280403)
	I494 : dAve : 	(-0.00189999839246 -0.000281838137867 -0.00718868112899) : omega : 	0.00747310942032 : d : 	(-0.19297876386 -0.0286256955111 -0.980785280403)
	I495 : dAve : 	(-0.00191847434919 -9.42486011392e-05 -0.00718868112899) : omega : 	0.00747310942032 : d : 	(-0.194855327179 -0.00957262838512 -0.980785280403)
	I496 : dAve : 	(-0.00191847434919 9.42486011392e-05 -0.00718868112899) : omega : 	0.00747310942032 : d : 	(-0.194855327179 0.00957262838512 -0.980785280403)
	I497 : dAve : 	(-0.00189999839246 0.000281838137867 -0.00718868112899) : omega : 	0.00747310942032 : d : 	(-0.19297876386 0.0286256955111 -0.980785280403)
	I498 : dAve : 	(-0.00186322441257 0.000466713419259 -0.00718868112899) : omega : 	0.00747310942032 : d : 	(-0.189243709551 0.0474030815409 -0.980785280403)
	I499 : dAve : 	(-0.00180850656304 0.000647093995292 -0.00718868112899) : omega : 	0.00747310942032 : d : 	(-0.183686134869 0.0657239499823 -0.980785280403)
	I500 : dAve : 	(-0.00173637180669 0.000821242702413 -0.00718868112899) : omega : 	0.00747310942032 : d : 	(-0.176359562295 0.0834118608569 -0.980785280403)
	I501 : dAve : 	(-0.00164751484063 0.000987482393372 -0.00718868112899) : omega : 	0.00747310942032 : d : 	(-0.167334550727 0.100296469914 -0.980785280403)
	I502 : dAve : 	(-0.00154279140604 0.00114421208907 -0.00718868112899) : omega : 	0.00747310942032 : d : 	(-0.156698015962 0.116215169138 -0.980785280403)
	I503 : dAve : 	(-0.00142321004683 0.00128992239686 -0.00718868112899) : omega : 	0.00747310942032 : d : 	(-0.144552393644 0.131014652754 -0.980785280403)
	I504 : dAve : 	(-0.00128992239686 0.00142321004683 -0.00718868112899) : omega : 	0.00747310942032 : d : 	(-0.131014652754 0.144552393644 -0.980785280403)
	I505 : dAve : 	(-0.00114421208907 0.00154279140604 -0.00718868112899) : omega : 	0.00747310942032 : d : 	(-0.116215169138 0.156698015962 -0.980785280403)
	I506 : dAve : 	(-0.000987482393372 0.00164751484063 -0.00718868112899) : omega : 	0.00747310942032 : d : 	(-0.100296469914 0.167334550727 -0.980785280403)
	I507 : dAve : 	(-0.000821242702413 0.00173637180669 -0.00718868112899) : omega : 	0.00747310942032 : d : 	(-0.0834118608569 0.176359562295 -0.980785280403)
	I508 : dAve : 	(-0.000647093995292 0.00180850656304 -0.00718868112899) : omega : 	0.00747310942032 : d : 	(-0.0657239499823 0.183686134869 -0.980785280403)
	I509 : dAve : 	(-0.000466713419259 0.00186322441257 -0.00718868112899) : omega : 	0.00747310942032 : d : 	(-0.0474030815409 0.189243709551 -0.980785280403)
	I510 : dAve : 	(-0.000281838137867 0.00189999839246 -0.00718868112899) : omega : 	0.00747310942032 : d : 	(-0.0286256955111 0.19297876386 -0.980785280403)
[...]
DILUPBiCGStab:  Solving for ILambda_364_0, Initial residual = 4.92208508777e-16, Final residual = 7.6655559385e-62, No Iterations 2
DILUPBiCGStab:  Solving for ILambda_365_0, Initial residual = 4.61656105609e-16, Final residual = 2.97053231915e-61, No Iterations 2
DILUPBiCGStab:  Solving for ILambda_366_0, Initial residual = 3.55386548013e-16, Final residual = 1.81817762102e-61, No Iterations 2
DILUPBiCGStab:  Solving for ILambda_367_0, Initial residual = 3.2583117945e-16, Final residual = 1.04754740431e-61, No Iterations 2
DILUPBiCGStab:  Solving for ILambda_368_0, Initial residual = 4.16154372576e-16, Final residual = 3.31655009204e-62, No Iterations 32
DILUPBiCGStab:  Solving for ILambda_369_0, Initial residual = 4.82503457753e-16, Final residual = 3.69161633044e-61, No Iterations 47
DILUPBiCGStab:  Solving for ILambda_370_0, Initial residual = 6.47830242798e-16, Final residual = 5.92922283371e-61, No Iterations 55
DILUPBiCGStab:  Solving for ILambda_371_0, Initial residual = 6.77677165491e-16, Final residual = 2.95286354436e-62, No Iterations 63
DILUPBiCGStab:  Solving for ILambda_372_0, Initial residual = 6.99716692809e-16, Final residual = 4.46350781709e-61, No Iterations 66
DILUPBiCGStab:  Solving for ILambda_373_0, Initial residual = 7.65270283478e-16, Final residual = 2.59646280533e-61, No Iterations 75
DILUPBiCGStab:  Solving for ILambda_374_0, Initial residual = 8.59136141707e-16, Final residual = 6.88480449534e-61, No Iterations 73
DILUPBiCGStab:  Solving for ILambda_375_0, Initial residual = 8.87435670298e-16, Final residual = 3.29124008353e-61, No Iterations 79
DILUPBiCGStab:  Solving for ILambda_376_0, Initial residual = 7.90723223439e-16, Final residual = 3.3471449168e-61, No Iterations 82
DILUPBiCGStab:  Solving for ILambda_377_0, Initial residual = 8.5426823329e-16, Final residual = 2.5823752285e-61, No Iterations 76
DILUPBiCGStab:  Solving for ILambda_378_0, Initial residual = 7.62746405371e-16, Final residual = 5.15830059344e-61, No Iterations 74
DILUPBiCGStab:  Solving for ILambda_379_0, Initial residual = 7.50542864043e-16, Final residual = 6.31747037055e-61, No Iterations 65
DILUPBiCGStab:  Solving for ILambda_380_0, Initial residual = 6.82898490153e-16, Final residual = 9.50187144573e-61, No Iterations 61
DILUPBiCGStab:  Solving for ILambda_381_0, Initial residual = 6.1861167574e-16, Final residual = 3.18043879743e-61, No Iterations 55
DILUPBiCGStab:  Solving for ILambda_382_0, Initial residual = 4.54157029328e-16, Final residual = 1.32509519887e-61, No Iterations 45
DILUPBiCGStab:  Solving for ILambda_383_0, Initial residual = 3.45618673443e-16, Final residual = 1.78128644273e-62, No Iterations 33
DILUPBiCGStab:  Solving for ILambda_384_0, Initial residual = 1.59330786878e-16, Final residual = 2.92352841356e-61, No Iterations 20
DILUPBiCGStab:  Solving for ILambda_385_0, Initial residual = 1.82311766037e-16, Final residual = 1.09882369346e-61, No Iterations 21
DILUPBiCGStab:  Solving for ILambda_386_0, Initial residual = 1.80349063532e-16, Final residual = 2.5562660505e-62, No Iterations 20
DILUPBiCGStab:  Solving for ILambda_387_0, Initial residual = 2.50512237968e-16, Final residual = 6.67847622891e-62, No Iterations 21
DILUPBiCGStab:  Solving for ILambda_388_0, Initial residual = 2.471680484e-16, Final residual = 2.34558014874e-61, No Iterations 20
DILUPBiCGStab:  Solving for ILambda_389_0, Initial residual = 2.53310214213e-16, Final residual = 4.05534925531e-61, No Iterations 21
DILUPBiCGStab:  Solving for ILambda_390_0, Initial residual = 2.49126124016e-16, Final residual = 6.61500522642e-61, No Iterations 19
DILUPBiCGStab:  Solving for ILambda_391_0, Initial residual = 2.65530310192e-16, Final residual = 3.69000250862e-61, No Iterations 21
DILUPBiCGStab:  Solving for ILambda_392_0, Initial residual = 2.65089914434e-16, Final residual = 3.66697058498e-61, No Iterations 20
DILUPBiCGStab:  Solving for ILambda_393_0, Initial residual = 2.83119310582e-16, Final residual = 8.92742000769e-62, No Iterations 22
DILUPBiCGStab:  Solving for ILambda_394_0, Initial residual = 2.7842629258e-16, Final residual = 5.79645123372e-61, No Iterations 19
DILUPBiCGStab:  Solving for ILambda_395_0, Initial residual = 2.77873739817e-16, Final residual = 2.54687033137e-61, No Iterations 19
DILUPBiCGStab:  Solving for ILambda_396_0, Initial residual = 2.77044595204e-16, Final residual = 3.72733549128e-62, No Iterations 19
DILUPBiCGStab:  Solving for ILambda_397_0, Initial residual = 2.04253377556e-16, Final residual = 5.83771680482e-61, No Iterations 21
DILUPBiCGStab:  Solving for ILambda_398_0, Initial residual = 1.97863342661e-16, Final residual = 7.82577291444e-61, No Iterations 20
DILUPBiCGStab:  Solving for ILambda_399_0, Initial residual = 1.67161857506e-16, Final residual = 7.67162928723e-62, No Iterations 19
DILUPBiCGStab:  Solving for ILambda_400_0, Initial residual = 1.62951958879e-16, Final residual = 5.15213636812e-61, No Iterations 32
DILUPBiCGStab:  Solving for ILambda_401_0, Initial residual = 1.9419187577e-16, Final residual = 5.41803738409e-61, No Iterations 43
DILUPBiCGStab:  Solving for ILambda_402_0, Initial residual = 2.6727149285e-16, Final residual = 6.51580477278e-61, No Iterations 53
DILUPBiCGStab:  Solving for ILambda_403_0, Initial residual = 3.15009786168e-16, Final residual = 2.60646320846e-61, No Iterations 63
DILUPBiCGStab:  Solving for ILambda_404_0, Initial residual = 3.0622275209e-16, Final residual = 6.28130062726e-61, No Iterations 66
DILUPBiCGStab:  Solving for ILambda_405_0, Initial residual = 3.1651145218e-16, Final residual = 5.58762440783e-61, No Iterations 70
DILUPBiCGStab:  Solving for ILambda_406_0, Initial residual = 3.80043272391e-16, Final residual = 8.08935215692e-61, No Iterations 74
DILUPBiCGStab:  Solving for ILambda_407_0, Initial residual = 3.2728837925e-16, Final residual = 9.03241883132e-61, No Iterations 76
DILUPBiCGStab:  Solving for ILambda_408_0, Initial residual = 3.71623895763e-16, Final residual = 2.52232247921e-61, No Iterations 79
DILUPBiCGStab:  Solving for ILambda_409_0, Initial residual = 3.8457023313e-16, Final residual = 5.08590353973e-61, No Iterations 72
DILUPBiCGStab:  Solving for ILambda_410_0, Initial residual = 3.79392833874e-16, Final residual = 9.04518046019e-61, No Iterations 71
DILUPBiCGStab:  Solving for ILambda_411_0, Initial residual = 3.29762833765e-16, Final residual = 9.69921163694e-61, No Iterations 67
DILUPBiCGStab:  Solving for ILambda_412_0, Initial residual = 3.45839231858e-16, Final residual = 3.87776196237e-61, No Iterations 60
DILUPBiCGStab:  Solving for ILambda_413_0, Initial residual = 2.6566887652e-16, Final residual = 5.781360432e-61, No Iterations 54
DILUPBiCGStab:  Solving for ILambda_414_0, Initial residual = 2.63716389226e-16, Final residual = 2.06826510075e-62, No Iterations 45
DILUPBiCGStab:  Solving for ILambda_415_0, Initial residual = 1.7983190347e-16, Final residual = 4.6971577182e-63, No Iterations 31
DILUPBiCGStab:  Solving for ILambda_416_0, Initial residual = 1.69728038604e-16, Final residual = 1.93901349559e-61, No Iterations 2
DILUPBiCGStab:  Solving for ILambda_417_0, Initial residual = 2.02220580679e-16, Final residual = 9.17447935468e-62, No Iterations 2
DILUPBiCGStab:  Solving for ILambda_418_0, Initial residual = 2.12564863533e-16, Final residual = 1.38333132202e-61, No Iterations 2
DILUPBiCGStab:  Solving for ILambda_419_0, Initial residual = 2.81268434589e-16, Final residual = 1.64419193846e-75, No Iterations 2
DILUPBiCGStab:  Solving for ILambda_420_0, Initial residual = 2.75329491378e-16, Final residual = 6.36046399235e-74, No Iterations 2
DILUPBiCGStab:  Solving for ILambda_421_0, Initial residual = 2.65719081276e-16, Final residual = 3.01823111954e-61, No Iterations 2
DILUPBiCGStab:  Solving for ILambda_422_0, Initial residual = 2.83360840225e-16, Final residual = 2.69014507442e-61, No Iterations 2
DILUPBiCGStab:  Solving for ILambda_423_0, Initial residual = 2.69891964787e-16, Final residual = 2.90773635115e-75, No Iterations 2
DILUPBiCGStab:  Solving for ILambda_424_0, Initial residual = 2.61745304239e-16, Final residual = 3.47865532101e-74, No Iterations 2
DILUPBiCGStab:  Solving for ILambda_425_0, Initial residual = 2.52949587232e-16, Final residual = 3.93077726839e-62, No Iterations 2
DILUPBiCGStab:  Solving for ILambda_426_0, Initial residual = 2.45905598586e-16, Final residual = 3.1704050403e-61, No Iterations 2
DILUPBiCGStab:  Solving for ILambda_427_0, Initial residual = 2.40720447788e-16, Final residual = 1.71621395116e-61, No Iterations 2
DILUPBiCGStab:  Solving for ILambda_428_0, Initial residual = 2.44724479875e-16, Final residual = 2.55944233888e-61, No Iterations 2
DILUPBiCGStab:  Solving for ILambda_429_0, Initial residual = 1.71903247535e-16, Final residual = 1.65613303938e-62, No Iterations 2
DILUPBiCGStab:  Solving for ILambda_430_0, Initial residual = 1.75020719516e-16, Final residual = 3.21811982907e-62, No Iterations 2
DILUPBiCGStab:  Solving for ILambda_431_0, Initial residual = 1.56815892147e-16, Final residual = 9.94093542329e-62, No Iterations 2
DILUPBiCGStab:  Solving for ILambda_432_0, Initial residual = 1.97946806941e-16, Final residual = 8.90569759768e-61, No Iterations 30
DILUPBiCGStab:  Solving for ILambda_433_0, Initial residual = 2.07942330485e-16, Final residual = 6.11509250218e-61, No Iterations 44
DILUPBiCGStab:  Solving for ILambda_434_0, Initial residual = 3.02018592008e-16, Final residual = 5.95269632708e-62, No Iterations 55
DILUPBiCGStab:  Solving for ILambda_435_0, Initial residual = 3.38139727135e-16, Final residual = 1.33378551531e-61, No Iterations 61
DILUPBiCGStab:  Solving for ILambda_436_0, Initial residual = 3.60221917979e-16, Final residual = 2.40108473645e-61, No Iterations 65
DILUPBiCGStab:  Solving for ILambda_437_0, Initial residual = 3.77108382278e-16, Final residual = 6.30899299061e-61, No Iterations 69
DILUPBiCGStab:  Solving for ILambda_438_0, Initial residual = 3.37055292389e-16, Final residual = 3.85580955985e-61, No Iterations 74
DILUPBiCGStab:  Solving for ILambda_439_0, Initial residual = 3.84218859928e-16, Final residual = 3.53497139721e-61, No Iterations 78
DILUPBiCGStab:  Solving for ILambda_440_0, Initial residual = 3.48949913729e-16, Final residual = 8.01273219877e-61, No Iterations 75
DILUPBiCGStab:  Solving for ILambda_441_0, Initial residual = 3.3099484826e-16, Final residual = 7.27467220642e-61, No Iterations 78
DILUPBiCGStab:  Solving for ILambda_442_0, Initial residual = 3.72546629733e-16, Final residual = 3.56829893492e-61, No Iterations 71
DILUPBiCGStab:  Solving for ILambda_443_0, Initial residual = 3.05969745358e-16, Final residual = 2.06307380351e-61, No Iterations 66
DILUPBiCGStab:  Solving for ILambda_444_0, Initial residual = 3.6680631228e-16, Final residual = 5.71967897521e-61, No Iterations 64
DILUPBiCGStab:  Solving for ILambda_445_0, Initial residual = 2.4038001087e-16, Final residual = 9.64848768466e-61, No Iterations 52
DILUPBiCGStab:  Solving for ILambda_446_0, Initial residual = 2.15844126424e-16, Final residual = 2.94678453254e-61, No Iterations 44
DILUPBiCGStab:  Solving for ILambda_447_0, Initial residual = 1.78951592669e-16, Final residual = 8.88369493001e-64, No Iterations 32
DILUPBiCGStab:  Solving for ILambda_448_0, Initial residual = 9.25939488733e-17, Final residual = 2.74346210856e-61, No Iterations 16
DILUPBiCGStab:  Solving for ILambda_449_0, Initial residual = 9.4266229745e-17, Final residual = 2.69787106448e-61, No Iterations 17
DILUPBiCGStab:  Solving for ILambda_450_0, Initial residual = 8.03951839757e-17, Final residual = 1.46562392246e-62, No Iterations 16
DILUPBiCGStab:  Solving for ILambda_451_0, Initial residual = 8.20363838518e-17, Final residual = 1.59989007801e-62, No Iterations 18
DILUPBiCGStab:  Solving for ILambda_452_0, Initial residual = 7.8432239581e-17, Final residual = 3.12678072646e-62, No Iterations 16
DILUPBiCGStab:  Solving for ILambda_453_0, Initial residual = 8.66612505036e-17, Final residual = 6.41994407667e-61, No Iterations 18
DILUPBiCGStab:  Solving for ILambda_454_0, Initial residual = 8.70109207708e-17, Final residual = 2.08426775106e-62, No Iterations 17
DILUPBiCGStab:  Solving for ILambda_455_0, Initial residual = 8.39646930646e-17, Final residual = 9.37708126832e-62, No Iterations 18
DILUPBiCGStab:  Solving for ILambda_456_0, Initial residual = 8.83901444839e-17, Final residual = 7.04735009283e-62, No Iterations 17
DILUPBiCGStab:  Solving for ILambda_457_0, Initial residual = 8.34086623948e-17, Final residual = 3.6534719622e-61, No Iterations 16
DILUPBiCGStab:  Solving for ILambda_458_0, Initial residual = 8.13541977057e-17, Final residual = 1.82345176725e-62, No Iterations 17
DILUPBiCGStab:  Solving for ILambda_459_0, Initial residual = 8.89392299837e-17, Final residual = 3.44777623771e-62, No Iterations 17
DILUPBiCGStab:  Solving for ILambda_460_0, Initial residual = 8.73866671593e-17, Final residual = 1.79421290527e-61, No Iterations 16
DILUPBiCGStab:  Solving for ILambda_461_0, Initial residual = 9.88739420083e-17, Final residual = 1.72569316168e-61, No Iterations 17
DILUPBiCGStab:  Solving for ILambda_462_0, Initial residual = 1.05293400684e-16, Final residual = 4.54034497358e-61, No Iterations 16
DILUPBiCGStab:  Solving for ILambda_463_0, Initial residual = 9.31747319112e-17, Final residual = 6.76290525349e-61, No Iterations 17
DILUPBiCGStab:  Solving for ILambda_464_0, Initial residual = 9.46730752626e-17, Final residual = 1.99665797345e-62, No Iterations 32
DILUPBiCGStab:  Solving for ILambda_465_0, Initial residual = 9.73142345443e-17, Final residual = 6.76124290283e-61, No Iterations 42
DILUPBiCGStab:  Solving for ILambda_466_0, Initial residual = 1.04254308963e-16, Final residual = 3.69531963055e-61, No Iterations 53
DILUPBiCGStab:  Solving for ILambda_467_0, Initial residual = 1.03302766278e-16, Final residual = 4.49829536506e-61, No Iterations 58
DILUPBiCGStab:  Solving for ILambda_468_0, Initial residual = 1.22069649129e-16, Final residual = 6.90865633562e-61, No Iterations 67
DILUPBiCGStab:  Solving for ILambda_469_0, Initial residual = 1.03597437327e-16, Final residual = 4.18993077435e-61, No Iterations 68
DILUPBiCGStab:  Solving for ILambda_470_0, Initial residual = 1.26507522066e-16, Final residual = 6.17959275645e-61, No Iterations 72
DILUPBiCGStab:  Solving for ILambda_471_0, Initial residual = 1.42234342636e-16, Final residual = 4.8674573185e-61, No Iterations 74
DILUPBiCGStab:  Solving for ILambda_472_0, Initial residual = 1.18881163307e-16, Final residual = 9.85312044043e-62, No Iterations 75
DILUPBiCGStab:  Solving for ILambda_473_0, Initial residual = 1.45891854101e-16, Final residual = 5.98675545508e-61, No Iterations 74
DILUPBiCGStab:  Solving for ILambda_474_0, Initial residual = 1.10671265202e-16, Final residual = 5.05638506335e-61, No Iterations 69
DILUPBiCGStab:  Solving for ILambda_475_0, Initial residual = 1.18160878461e-16, Final residual = 6.52289881068e-61, No Iterations 64
DILUPBiCGStab:  Solving for ILambda_476_0, Initial residual = 1.45920323857e-16, Final residual = 3.11614355375e-61, No Iterations 60
DILUPBiCGStab:  Solving for ILambda_477_0, Initial residual = 1.11087757796e-16, Final residual = 6.60781890864e-61, No Iterations 51
DILUPBiCGStab:  Solving for ILambda_478_0, Initial residual = 1.22037298781e-16, Final residual = 5.11688644374e-61, No Iterations 43
DILUPBiCGStab:  Solving for ILambda_479_0, Initial residual = 9.51974265279e-17, Final residual = 1.08980668616e-62, No Iterations 30
DILUPBiCGStab:  Solving for ILambda_480_0, Initial residual = 9.48545382281e-17, Final residual = 2.24049178758e-62, No Iterations 2
DILUPBiCGStab:  Solving for ILambda_481_0, Initial residual = 1.08619683756e-16, Final residual = 4.30412730696e-62, No Iterations 2
DILUPBiCGStab:  Solving for ILambda_482_0, Initial residual = 9.76992472039e-17, Final residual = 9.05998158305e-63, No Iterations 2
DILUPBiCGStab:  Solving for ILambda_483_0, Initial residual = 8.67252621223e-17, Final residual = 2.0890874171e-62, No Iterations 2
DILUPBiCGStab:  Solving for ILambda_484_0, Initial residual = 9.18325551492e-17, Final residual = 7.60377859687e-62, No Iterations 2
DILUPBiCGStab:  Solving for ILambda_485_0, Initial residual = 8.89163453767e-17, Final residual = 1.37148141031e-62, No Iterations 2
DILUPBiCGStab:  Solving for ILambda_486_0, Initial residual = 8.16265644232e-17, Final residual = 1.94751208742e-62, No Iterations 2
DILUPBiCGStab:  Solving for ILambda_487_0, Initial residual = 8.33695300795e-17, Final residual = 1.30178782261e-62, No Iterations 2
DILUPBiCGStab:  Solving for ILambda_488_0, Initial residual = 8.63173285885e-17, Final residual = 2.69364896448e-62, No Iterations 2
DILUPBiCGStab:  Solving for ILambda_489_0, Initial residual = 8.46161790208e-17, Final residual = 4.2175909924e-62, No Iterations 2
DILUPBiCGStab:  Solving for ILambda_490_0, Initial residual = 8.6729614187e-17, Final residual = 1.26789027947e-62, No Iterations 2
DILUPBiCGStab:  Solving for ILambda_491_0, Initial residual = 8.48202183221e-17, Final residual = 3.66944665734e-62, No Iterations 2
DILUPBiCGStab:  Solving for ILambda_492_0, Initial residual = 8.12414248284e-17, Final residual = 1.5679339431e-61, No Iterations 2
DILUPBiCGStab:  Solving for ILambda_493_0, Initial residual = 8.2495780551e-17, Final residual = 6.8117865874e-63, No Iterations 2
DILUPBiCGStab:  Solving for ILambda_494_0, Initial residual = 9.31003841388e-17, Final residual = 1.02635337939e-61, No Iterations 2
DILUPBiCGStab:  Solving for ILambda_495_0, Initial residual = 9.03444391499e-17, Final residual = 2.62608854527e-62, No Iterations 2
DILUPBiCGStab:  Solving for ILambda_496_0, Initial residual = 1.02880398396e-16, Final residual = 1.25732705898e-61, No Iterations 30
DILUPBiCGStab:  Solving for ILambda_497_0, Initial residual = 1.12042981603e-16, Final residual = 5.28813672824e-61, No Iterations 44
DILUPBiCGStab:  Solving for ILambda_498_0, Initial residual = 1.11726804101e-16, Final residual = 1.79842582631e-61, No Iterations 54
DILUPBiCGStab:  Solving for ILambda_499_0, Initial residual = 1.08795235167e-16, Final residual = 3.25194295003e-61, No Iterations 61
DILUPBiCGStab:  Solving for ILambda_500_0, Initial residual = 1.16015401218e-16, Final residual = 6.24434074712e-61, No Iterations 64
DILUPBiCGStab:  Solving for ILambda_501_0, Initial residual = 9.84650836607e-17, Final residual = 3.0919783733e-61, No Iterations 71
DILUPBiCGStab:  Solving for ILambda_502_0, Initial residual = 1.3068673729e-16, Final residual = 3.86454972605e-61, No Iterations 71
DILUPBiCGStab:  Solving for ILambda_503_0, Initial residual = 1.36876171211e-16, Final residual = 3.54319122326e-61, No Iterations 74
DILUPBiCGStab:  Solving for ILambda_504_0, Initial residual = 1.4034371505e-16, Final residual = 7.64042377286e-61, No Iterations 70
DILUPBiCGStab:  Solving for ILambda_505_0, Initial residual = 1.16331252316e-16, Final residual = 6.01591647562e-61, No Iterations 72
DILUPBiCGStab:  Solving for ILambda_506_0, Initial residual = 1.51025422718e-16, Final residual = 5.85766494318e-61, No Iterations 70
DILUPBiCGStab:  Solving for ILambda_507_0, Initial residual = 1.06605203661e-16, Final residual = 9.28855249117e-61, No Iterations 63
DILUPBiCGStab:  Solving for ILambda_508_0, Initial residual = 1.1159720324e-16, Final residual = 6.0163979423e-62, No Iterations 62
DILUPBiCGStab:  Solving for ILambda_509_0, Initial residual = 1.01030643951e-16, Final residual = 3.70567396876e-61, No Iterations 52
DILUPBiCGStab:  Solving for ILambda_510_0, Initial residual = 1.03434325568e-16, Final residual = 4.24467784459e-61, No Iterations 44
DILUPBiCGStab:  Solving for ILambda_511_0, Initial residual = 9.09454230216e-17, Final residual = 6.17849195657e-61, No Iterations 31
min/max(T) = 1000, 1000
ExecutionTime = 993.44 s  ClockTime = 993 s

writeObjects writeObjects1.writeObjects write:
    writing object a
    writing object qem
End

