/*---------------------------------------------------------------------------*\
| =========                 |                                                 |
| \\      /  F ield         | OpenFOAM: The Open Source CFD Toolbox           |
|  \\    /   O peration     | Version:  2306                                  |
|   \\  /    A nd           | Website:  www.openfoam.com                      |
|    \\/     M anipulation  |                                                 |
\*---------------------------------------------------------------------------*/
Build  : _fbf00d6b-20230626 OPENFOAM=2306 version=2306
Arch   : "LSB;label=32;scalar=64"
Exec   : fireRADFoam_MaCFP
Date   : Mar 12 2024
Time   : 19:54:31
Host   : pop-os
PID    : 174617
I/O    : uncollated
Case   : /home/rafay/Desktop/Study/Radiative_Heat_Transfer/Local_copy_RHT2324/01_Projects/02_Rafay/Case_1_q1D_SolidAngle/new_case3/th_4-ph_8/tau_0.1/res_4
nProcs : 1
trapFpe: Floating point exception trapping enabled (FOAM_SIGFPE).
fileModificationChecking : Monitoring run-time modified files using timeStampMaster (fileModificationSkew 5, maxFileModificationPolls 20)
allowSystemOperations : Allowing user-supplied system call operations

// * * * * * * * * * * * * * * * * * * * * * * * * * * * * * * * * * * * * * //
Create time

Create mesh for time = 0


PIMPLE: no residual control data found. Calculations will employ 10 corrector loops

Reading thermophysical properties

Selecting thermodynamics package 
{
    type            hePsiThermo;
    mixture         singleStepReactingMixture;
    transport       sutherland;
    thermo          janaf;
    energy          sensibleEnthalpy;
    equationOfState perfectGas;
    specie          specie;
}

Selecting chemistryReader foamChemistryReader
    elements not defined in "/home/rafay/Desktop/Study/Radiative_Heat_Transfer/Local_copy_RHT2324/01_Projects/02_Rafay/Case_1_q1D_SolidAngle/new_case3/th_4-ph_8/tau_0.1/res_4/constant/reactions"
Fuel heat of combustion :47168962.4726
stoichiometric air-fuel ratio :14.6914056505
stoichiometric oxygen-fuel ratio :3.42181919285
Maximum products mass concentrations:
    H2O: 0.0818486943001
    CO2: 0.199950099979
    N2: 0.718201205721
Creating component thermo properties:
    multi-component carrier - 6 species
    no liquid components
    no solid components
Creating field rho


Reading field U

Reading/calculating face flux field phi

Selecting radiationModel fvDOM
Selecting absorptionEmissionModel constantAbsorptionEmission
Selecting scatterModel none
Selecting sootModel none
fvDOM : Allocated 128 rays with average orientation:
	I0 : dAve : 	(0.00274192284156 0.0278392098 0.0490873852123) : omega : 	0.0575094490319 : d : 	(0.0375095356919 0.38084070704 0.923879532511)
	I1 : dAve : 	(0.00812039796756 0.0267693645798 0.0490873852123) : omega : 	0.0575094490319 : d : 	(0.111087136655 0.366205212247 0.923879532511)
	I2 : dAve : 	(0.0131868107536 0.0246707876912 0.0490873852123) : omega : 	0.0575094490319 : d : 	(0.180395721254 0.337496656517 0.923879532511)
	I3 : dAve : 	(0.0177464617977 0.0216241262672 0.0490873852123) : omega : 	0.0575094490319 : d : 	(0.242771799453 0.295818293547 0.923879532511)
	I4 : dAve : 	(0.0216241262672 0.0177464617977 0.0490873852123) : omega : 	0.0575094490319 : d : 	(0.295818293547 0.242771799453 0.923879532511)
	I5 : dAve : 	(0.0246707876912 0.0131868107536 0.0490873852123) : omega : 	0.0575094490319 : d : 	(0.337496656517 0.180395721254 0.923879532511)
	I6 : dAve : 	(0.0267693645798 0.00812039796756 0.0490873852123) : omega : 	0.0575094490319 : d : 	(0.366205212247 0.111087136655 0.923879532511)
	I7 : dAve : 	(0.0278392098 0.00274192284156 0.0490873852123) : omega : 	0.0575094490319 : d : 	(0.38084070704 0.0375095356919 0.923879532511)
	I8 : dAve : 	(0.0278392098 -0.00274192284156 0.0490873852123) : omega : 	0.0575094490319 : d : 	(0.38084070704 -0.0375095356919 0.923879532511)
	I9 : dAve : 	(0.0267693645798 -0.00812039796756 0.0490873852123) : omega : 	0.0575094490319 : d : 	(0.366205212247 -0.111087136655 0.923879532511)
	I10 : dAve : 	(0.0246707876912 -0.0131868107536 0.0490873852123) : omega : 	0.0575094490319 : d : 	(0.337496656517 -0.180395721254 0.923879532511)
	I11 : dAve : 	(0.0216241262672 -0.0177464617977 0.0490873852123) : omega : 	0.0575094490319 : d : 	(0.295818293547 -0.242771799453 0.923879532511)
	I12 : dAve : 	(0.0177464617977 -0.0216241262672 0.0490873852123) : omega : 	0.0575094490319 : d : 	(0.242771799453 -0.295818293547 0.923879532511)
	I13 : dAve : 	(0.0131868107536 -0.0246707876912 0.0490873852123) : omega : 	0.0575094490319 : d : 	(0.180395721254 -0.337496656517 0.923879532511)
	I14 : dAve : 	(0.00812039796756 -0.0267693645798 0.0490873852123) : omega : 	0.0575094490319 : d : 	(0.111087136655 -0.366205212247 0.923879532511)
	I15 : dAve : 	(0.00274192284156 -0.0278392098 0.0490873852123) : omega : 	0.0575094490319 : d : 	(0.0375095356919 -0.38084070704 0.923879532511)
	I16 : dAve : 	(-0.00274192284156 -0.0278392098 0.0490873852123) : omega : 	0.0575094490319 : d : 	(-0.0375095356919 -0.38084070704 0.923879532511)
	I17 : dAve : 	(-0.00812039796756 -0.0267693645798 0.0490873852123) : omega : 	0.0575094490319 : d : 	(-0.111087136655 -0.366205212247 0.923879532511)
	I18 : dAve : 	(-0.0131868107536 -0.0246707876912 0.0490873852123) : omega : 	0.0575094490319 : d : 	(-0.180395721254 -0.337496656517 0.923879532511)
	I19 : dAve : 	(-0.0177464617977 -0.0216241262672 0.0490873852123) : omega : 	0.0575094490319 : d : 	(-0.242771799453 -0.295818293547 0.923879532511)
	I20 : dAve : 	(-0.0216241262672 -0.0177464617977 0.0490873852123) : omega : 	0.0575094490319 : d : 	(-0.295818293547 -0.242771799453 0.923879532511)
	I21 : dAve : 	(-0.0246707876912 -0.0131868107536 0.0490873852123) : omega : 	0.0575094490319 : d : 	(-0.337496656517 -0.180395721254 0.923879532511)
	I22 : dAve : 	(-0.0267693645798 -0.00812039796756 0.0490873852123) : omega : 	0.0575094490319 : d : 	(-0.366205212247 -0.111087136655 0.923879532511)
	I23 : dAve : 	(-0.0278392098 -0.00274192284156 0.0490873852123) : omega : 	0.0575094490319 : d : 	(-0.38084070704 -0.0375095356919 0.923879532511)
	I24 : dAve : 	(-0.0278392098 0.00274192284156 0.0490873852123) : omega : 	0.0575094490319 : d : 	(-0.38084070704 0.0375095356919 0.923879532511)
	I25 : dAve : 	(-0.0267693645798 0.00812039796756 0.0490873852123) : omega : 	0.0575094490319 : d : 	(-0.366205212247 0.111087136655 0.923879532511)
	I26 : dAve : 	(-0.0246707876912 0.0131868107536 0.0490873852123) : omega : 	0.0575094490319 : d : 	(-0.337496656517 0.180395721254 0.923879532511)
	I27 : dAve : 	(-0.0216241262672 0.0177464617977 0.0490873852123) : omega : 	0.0575094490319 : d : 	(-0.295818293547 0.242771799453 0.923879532511)
	I28 : dAve : 	(-0.0177464617977 0.0216241262672 0.0490873852123) : omega : 	0.0575094490319 : d : 	(-0.242771799453 0.295818293547 0.923879532511)
	I29 : dAve : 	(-0.0131868107536 0.0246707876912 0.0490873852123) : omega : 	0.0575094490319 : d : 	(-0.180395721254 0.337496656517 0.923879532511)
	I30 : dAve : 	(-0.00812039796756 0.0267693645798 0.0490873852123) : omega : 	0.0575094490319 : d : 	(-0.111087136655 0.366205212247 0.923879532511)
	I31 : dAve : 	(-0.00274192284156 0.0278392098 0.0490873852123) : omega : 	0.0575094490319 : d : 	(-0.0375095356919 0.38084070704 0.923879532511)
	I32 : dAve : 	(0.0123492826399 0.125384370808 0.0490873852123) : omega : 	0.138840091817 : d : 	(0.0905560297858 0.91943080004 0.382683432365)
	I33 : dAve : 	(0.0365732719135 0.120565919754 0.0490873852123) : omega : 	0.138840091817 : d : 	(0.268188071917 0.884097590017 0.382683432365)
	I34 : dAve : 	(0.059391770858 0.111114188018 0.0490873852123) : omega : 	0.138840091817 : d : 	(0.435513796846 0.814789005418 0.382683432365)
	I35 : dAve : 	(0.0799278773557 0.0973924003507 0.0490873852123) : omega : 	0.138840091817 : d : 	(0.586102970801 0.714168536279 0.382683432365)
	I36 : dAve : 	(0.0973924003507 0.0799278773557 0.0490873852123) : omega : 	0.138840091817 : d : 	(0.714168536279 0.586102970801 0.382683432365)
	I37 : dAve : 	(0.111114188018 0.059391770858 0.0490873852123) : omega : 	0.138840091817 : d : 	(0.814789005418 0.435513796846 0.382683432365)
	I38 : dAve : 	(0.120565919754 0.0365732719135 0.0490873852123) : omega : 	0.138840091817 : d : 	(0.884097590017 0.268188071917 0.382683432365)
	I39 : dAve : 	(0.125384370808 0.0123492826399 0.0490873852123) : omega : 	0.138840091817 : d : 	(0.91943080004 0.0905560297858 0.382683432365)
	I40 : dAve : 	(0.125384370808 -0.0123492826399 0.0490873852123) : omega : 	0.138840091817 : d : 	(0.91943080004 -0.0905560297858 0.382683432365)
	I41 : dAve : 	(0.120565919754 -0.0365732719135 0.0490873852123) : omega : 	0.138840091817 : d : 	(0.884097590017 -0.268188071917 0.382683432365)
	I42 : dAve : 	(0.111114188018 -0.059391770858 0.0490873852123) : omega : 	0.138840091817 : d : 	(0.814789005418 -0.435513796846 0.382683432365)
	I43 : dAve : 	(0.0973924003507 -0.0799278773557 0.0490873852123) : omega : 	0.138840091817 : d : 	(0.714168536279 -0.586102970801 0.382683432365)
	I44 : dAve : 	(0.0799278773557 -0.0973924003507 0.0490873852123) : omega : 	0.138840091817 : d : 	(0.586102970801 -0.714168536279 0.382683432365)
	I45 : dAve : 	(0.059391770858 -0.111114188018 0.0490873852123) : omega : 	0.138840091817 : d : 	(0.435513796846 -0.814789005418 0.382683432365)
	I46 : dAve : 	(0.0365732719135 -0.120565919754 0.0490873852123) : omega : 	0.138840091817 : d : 	(0.268188071917 -0.884097590017 0.382683432365)
	I47 : dAve : 	(0.0123492826399 -0.125384370808 0.0490873852123) : omega : 	0.138840091817 : d : 	(0.0905560297858 -0.91943080004 0.382683432365)
	I48 : dAve : 	(-0.0123492826399 -0.125384370808 0.0490873852123) : omega : 	0.138840091817 : d : 	(-0.0905560297858 -0.91943080004 0.382683432365)
	I49 : dAve : 	(-0.0365732719135 -0.120565919754 0.0490873852123) : omega : 	0.138840091817 : d : 	(-0.268188071917 -0.884097590017 0.382683432365)
	I50 : dAve : 	(-0.059391770858 -0.111114188018 0.0490873852123) : omega : 	0.138840091817 : d : 	(-0.435513796846 -0.814789005418 0.382683432365)
	I51 : dAve : 	(-0.0799278773557 -0.0973924003507 0.0490873852123) : omega : 	0.138840091817 : d : 	(-0.586102970801 -0.714168536279 0.382683432365)
	I52 : dAve : 	(-0.0973924003507 -0.0799278773557 0.0490873852123) : omega : 	0.138840091817 : d : 	(-0.714168536279 -0.586102970801 0.382683432365)
	I53 : dAve : 	(-0.111114188018 -0.059391770858 0.0490873852123) : omega : 	0.138840091817 : d : 	(-0.814789005418 -0.435513796846 0.382683432365)
	I54 : dAve : 	(-0.120565919754 -0.0365732719135 0.0490873852123) : omega : 	0.138840091817 : d : 	(-0.884097590017 -0.268188071917 0.382683432365)
	I55 : dAve : 	(-0.125384370808 -0.0123492826399 0.0490873852123) : omega : 	0.138840091817 : d : 	(-0.91943080004 -0.0905560297858 0.382683432365)
	I56 : dAve : 	(-0.125384370808 0.0123492826399 0.0490873852123) : omega : 	0.138840091817 : d : 	(-0.91943080004 0.0905560297858 0.382683432365)
	I57 : dAve : 	(-0.120565919754 0.0365732719135 0.0490873852123) : omega : 	0.138840091817 : d : 	(-0.884097590017 0.268188071917 0.382683432365)
	I58 : dAve : 	(-0.111114188018 0.059391770858 0.0490873852123) : omega : 	0.138840091817 : d : 	(-0.814789005418 0.435513796846 0.382683432365)
	I59 : dAve : 	(-0.0973924003507 0.0799278773557 0.0490873852123) : omega : 	0.138840091817 : d : 	(-0.714168536279 0.586102970801 0.382683432365)
	I60 : dAve : 	(-0.0799278773557 0.0973924003507 0.0490873852123) : omega : 	0.138840091817 : d : 	(-0.586102970801 0.714168536279 0.382683432365)
	I61 : dAve : 	(-0.059391770858 0.111114188018 0.0490873852123) : omega : 	0.138840091817 : d : 	(-0.435513796846 0.814789005418 0.382683432365)
	I62 : dAve : 	(-0.0365732719135 0.120565919754 0.0490873852123) : omega : 	0.138840091817 : d : 	(-0.268188071917 0.884097590017 0.382683432365)
	I63 : dAve : 	(-0.0123492826399 0.125384370808 0.0490873852123) : omega : 	0.138840091817 : d : 	(-0.0905560297858 0.91943080004 0.382683432365)
	I64 : dAve : 	(0.0123492826399 0.125384370808 -0.0490873852123) : omega : 	0.138840091817 : d : 	(0.0905560297858 0.91943080004 -0.382683432365)
	I65 : dAve : 	(0.0365732719135 0.120565919754 -0.0490873852123) : omega : 	0.138840091817 : d : 	(0.268188071917 0.884097590017 -0.382683432365)
	I66 : dAve : 	(0.059391770858 0.111114188018 -0.0490873852123) : omega : 	0.138840091817 : d : 	(0.435513796846 0.814789005418 -0.382683432365)
	I67 : dAve : 	(0.0799278773557 0.0973924003507 -0.0490873852123) : omega : 	0.138840091817 : d : 	(0.586102970801 0.714168536279 -0.382683432365)
	I68 : dAve : 	(0.0973924003507 0.0799278773557 -0.0490873852123) : omega : 	0.138840091817 : d : 	(0.714168536279 0.586102970801 -0.382683432365)
	I69 : dAve : 	(0.111114188018 0.059391770858 -0.0490873852123) : omega : 	0.138840091817 : d : 	(0.814789005418 0.435513796846 -0.382683432365)
	I70 : dAve : 	(0.120565919754 0.0365732719135 -0.0490873852123) : omega : 	0.138840091817 : d : 	(0.884097590017 0.268188071917 -0.382683432365)
	I71 : dAve : 	(0.125384370808 0.0123492826399 -0.0490873852123) : omega : 	0.138840091817 : d : 	(0.91943080004 0.0905560297858 -0.382683432365)
	I72 : dAve : 	(0.125384370808 -0.0123492826399 -0.0490873852123) : omega : 	0.138840091817 : d : 	(0.91943080004 -0.0905560297858 -0.382683432365)
	I73 : dAve : 	(0.120565919754 -0.0365732719135 -0.0490873852123) : omega : 	0.138840091817 : d : 	(0.884097590017 -0.268188071917 -0.382683432365)
	I74 : dAve : 	(0.111114188018 -0.059391770858 -0.0490873852123) : omega : 	0.138840091817 : d : 	(0.814789005418 -0.435513796846 -0.382683432365)
	I75 : dAve : 	(0.0973924003507 -0.0799278773557 -0.0490873852123) : omega : 	0.138840091817 : d : 	(0.714168536279 -0.586102970801 -0.382683432365)
	I76 : dAve : 	(0.0799278773557 -0.0973924003507 -0.0490873852123) : omega : 	0.138840091817 : d : 	(0.586102970801 -0.714168536279 -0.382683432365)
	I77 : dAve : 	(0.059391770858 -0.111114188018 -0.0490873852123) : omega : 	0.138840091817 : d : 	(0.435513796846 -0.814789005418 -0.382683432365)
	I78 : dAve : 	(0.0365732719135 -0.120565919754 -0.0490873852123) : omega : 	0.138840091817 : d : 	(0.268188071917 -0.884097590017 -0.382683432365)
	I79 : dAve : 	(0.0123492826399 -0.125384370808 -0.0490873852123) : omega : 	0.138840091817 : d : 	(0.0905560297858 -0.91943080004 -0.382683432365)
	I80 : dAve : 	(-0.0123492826399 -0.125384370808 -0.0490873852123) : omega : 	0.138840091817 : d : 	(-0.0905560297858 -0.91943080004 -0.382683432365)
	I81 : dAve : 	(-0.0365732719135 -0.120565919754 -0.0490873852123) : omega : 	0.138840091817 : d : 	(-0.268188071917 -0.884097590017 -0.382683432365)
	I82 : dAve : 	(-0.059391770858 -0.111114188018 -0.0490873852123) : omega : 	0.138840091817 : d : 	(-0.435513796846 -0.814789005418 -0.382683432365)
	I83 : dAve : 	(-0.0799278773557 -0.0973924003507 -0.0490873852123) : omega : 	0.138840091817 : d : 	(-0.586102970801 -0.714168536279 -0.382683432365)
	I84 : dAve : 	(-0.0973924003507 -0.0799278773557 -0.0490873852123) : omega : 	0.138840091817 : d : 	(-0.714168536279 -0.586102970801 -0.382683432365)
	I85 : dAve : 	(-0.111114188018 -0.059391770858 -0.0490873852123) : omega : 	0.138840091817 : d : 	(-0.814789005418 -0.435513796846 -0.382683432365)
	I86 : dAve : 	(-0.120565919754 -0.0365732719135 -0.0490873852123) : omega : 	0.138840091817 : d : 	(-0.884097590017 -0.268188071917 -0.382683432365)
	I87 : dAve : 	(-0.125384370808 -0.0123492826399 -0.0490873852123) : omega : 	0.138840091817 : d : 	(-0.91943080004 -0.0905560297858 -0.382683432365)
	I88 : dAve : 	(-0.125384370808 0.0123492826399 -0.0490873852123) : omega : 	0.138840091817 : d : 	(-0.91943080004 0.0905560297858 -0.382683432365)
	I89 : dAve : 	(-0.120565919754 0.0365732719135 -0.0490873852123) : omega : 	0.138840091817 : d : 	(-0.884097590017 0.268188071917 -0.382683432365)
	I90 : dAve : 	(-0.111114188018 0.059391770858 -0.0490873852123) : omega : 	0.138840091817 : d : 	(-0.814789005418 0.435513796846 -0.382683432365)
	I91 : dAve : 	(-0.0973924003507 0.0799278773557 -0.0490873852123) : omega : 	0.138840091817 : d : 	(-0.714168536279 0.586102970801 -0.382683432365)
	I92 : dAve : 	(-0.0799278773557 0.0973924003507 -0.0490873852123) : omega : 	0.138840091817 : d : 	(-0.586102970801 0.714168536279 -0.382683432365)
	I93 : dAve : 	(-0.059391770858 0.111114188018 -0.0490873852123) : omega : 	0.138840091817 : d : 	(-0.435513796846 0.814789005418 -0.382683432365)
	I94 : dAve : 	(-0.0365732719135 0.120565919754 -0.0490873852123) : omega : 	0.138840091817 : d : 	(-0.268188071917 0.884097590017 -0.382683432365)
	I95 : dAve : 	(-0.0123492826399 0.125384370808 -0.0490873852123) : omega : 	0.138840091817 : d : 	(-0.0905560297858 0.91943080004 -0.382683432365)
	I96 : dAve : 	(0.00274192284156 0.0278392098 -0.0490873852123) : omega : 	0.0575094490319 : d : 	(0.0375095356919 0.38084070704 -0.923879532511)
	I97 : dAve : 	(0.00812039796756 0.0267693645798 -0.0490873852123) : omega : 	0.0575094490319 : d : 	(0.111087136655 0.366205212247 -0.923879532511)
	I98 : dAve : 	(0.0131868107536 0.0246707876912 -0.0490873852123) : omega : 	0.0575094490319 : d : 	(0.180395721254 0.337496656517 -0.923879532511)
	I99 : dAve : 	(0.0177464617977 0.0216241262672 -0.0490873852123) : omega : 	0.0575094490319 : d : 	(0.242771799453 0.295818293547 -0.923879532511)
	I100 : dAve : 	(0.0216241262672 0.0177464617977 -0.0490873852123) : omega : 	0.0575094490319 : d : 	(0.295818293547 0.242771799453 -0.923879532511)
	I101 : dAve : 	(0.0246707876912 0.0131868107536 -0.0490873852123) : omega : 	0.0575094490319 : d : 	(0.337496656517 0.180395721254 -0.923879532511)
	I102 : dAve : 	(0.0267693645798 0.00812039796756 -0.0490873852123) : omega : 	0.0575094490319 : d : 	(0.366205212247 0.111087136655 -0.923879532511)
	I103 : dAve : 	(0.0278392098 0.00274192284156 -0.0490873852123) : omega : 	0.0575094490319 : d : 	(0.38084070704 0.0375095356919 -0.923879532511)
	I104 : dAve : 	(0.0278392098 -0.00274192284156 -0.0490873852123) : omega : 	0.0575094490319 : d : 	(0.38084070704 -0.0375095356919 -0.923879532511)
	I105 : dAve : 	(0.0267693645798 -0.00812039796756 -0.0490873852123) : omega : 	0.0575094490319 : d : 	(0.366205212247 -0.111087136655 -0.923879532511)
	I106 : dAve : 	(0.0246707876912 -0.0131868107536 -0.0490873852123) : omega : 	0.0575094490319 : d : 	(0.337496656517 -0.180395721254 -0.923879532511)
	I107 : dAve : 	(0.0216241262672 -0.0177464617977 -0.0490873852123) : omega : 	0.0575094490319 : d : 	(0.295818293547 -0.242771799453 -0.923879532511)
	I108 : dAve : 	(0.0177464617977 -0.0216241262672 -0.0490873852123) : omega : 	0.0575094490319 : d : 	(0.242771799453 -0.295818293547 -0.923879532511)
	I109 : dAve : 	(0.0131868107536 -0.0246707876912 -0.0490873852123) : omega : 	0.0575094490319 : d : 	(0.180395721254 -0.337496656517 -0.923879532511)
	I110 : dAve : 	(0.00812039796756 -0.0267693645798 -0.0490873852123) : omega : 	0.0575094490319 : d : 	(0.111087136655 -0.366205212247 -0.923879532511)
	I111 : dAve : 	(0.00274192284156 -0.0278392098 -0.0490873852123) : omega : 	0.0575094490319 : d : 	(0.0375095356919 -0.38084070704 -0.923879532511)
	I112 : dAve : 	(-0.00274192284156 -0.0278392098 -0.0490873852123) : omega : 	0.0575094490319 : d : 	(-0.0375095356919 -0.38084070704 -0.923879532511)
	I113 : dAve : 	(-0.00812039796756 -0.0267693645798 -0.0490873852123) : omega : 	0.0575094490319 : d : 	(-0.111087136655 -0.366205212247 -0.923879532511)
	I114 : dAve : 	(-0.0131868107536 -0.0246707876912 -0.0490873852123) : omega : 	0.0575094490319 : d : 	(-0.180395721254 -0.337496656517 -0.923879532511)
	I115 : dAve : 	(-0.0177464617977 -0.0216241262672 -0.0490873852123) : omega : 	0.0575094490319 : d : 	(-0.242771799453 -0.295818293547 -0.923879532511)
	I116 : dAve : 	(-0.0216241262672 -0.0177464617977 -0.0490873852123) : omega : 	0.0575094490319 : d : 	(-0.295818293547 -0.242771799453 -0.923879532511)
	I117 : dAve : 	(-0.0246707876912 -0.0131868107536 -0.0490873852123) : omega : 	0.0575094490319 : d : 	(-0.337496656517 -0.180395721254 -0.923879532511)
	I118 : dAve : 	(-0.0267693645798 -0.00812039796756 -0.0490873852123) : omega : 	0.0575094490319 : d : 	(-0.366205212247 -0.111087136655 -0.923879532511)
	I119 : dAve : 	(-0.0278392098 -0.00274192284156 -0.0490873852123) : omega : 	0.0575094490319 : d : 	(-0.38084070704 -0.0375095356919 -0.923879532511)
	I120 : dAve : 	(-0.0278392098 0.00274192284156 -0.0490873852123) : omega : 	0.0575094490319 : d : 	(-0.38084070704 0.0375095356919 -0.923879532511)
	I121 : dAve : 	(-0.0267693645798 0.00812039796756 -0.0490873852123) : omega : 	0.0575094490319 : d : 	(-0.366205212247 0.111087136655 -0.923879532511)
	I122 : dAve : 	(-0.0246707876912 0.0131868107536 -0.0490873852123) : omega : 	0.0575094490319 : d : 	(-0.337496656517 0.180395721254 -0.923879532511)
	I123 : dAve : 	(-0.0216241262672 0.0177464617977 -0.0490873852123) : omega : 	0.0575094490319 : d : 	(-0.295818293547 0.242771799453 -0.923879532511)
	I124 : dAve : 	(-0.0177464617977 0.0216241262672 -0.0490873852123) : omega : 	0.0575094490319 : d : 	(-0.242771799453 0.295818293547 -0.923879532511)
	I125 : dAve : 	(-0.0131868107536 0.0246707876912 -0.0490873852123) : omega : 	0.0575094490319 : d : 	(-0.180395721254 0.337496656517 -0.923879532511)
	I126 : dAve : 	(-0.00812039796756 0.0267693645798 -0.0490873852123) : omega : 	0.0575094490319 : d : 	(-0.111087136655 0.366205212247 -0.923879532511)
	I127 : dAve : 	(-0.00274192284156 0.0278392098 -0.0490873852123) : omega : 	0.0575094490319 : d : 	(-0.0375095356919 0.38084070704 -0.923879532511)
Total omega : 12.5663706144

Courant Number mean: 0 max: 0

Starting time loop

Sampled set:
    data -> csv

Sampled set:
    data -> csv

Sampled surface:
    yNormal -> ensight
        sampledCuttingPlane: yNormal : plane:(0 1 0) (0 0 0) offsets:(0)

Sampled surface:
    zNormal -> ensight
        sampledCuttingPlane: zNormal : plane:(0 0 1) (0 0 0) offsets:(0)

Sampled surface:
    patchAll -> ensight
        sampledPatch: patchAll : patches:(".*WW.*")

deltaT = 1
Time = 1

PIMPLE: iteration 1
Radiation solver iter: 0
DILUPBiCGStab:  Solving for ILambda_0_0, Initial residual = 1, Final residual = 6.66640697925e-73, No Iterations 3
DILUPBiCGStab:  Solving for ILambda_1_0, Initial residual = 1, Final residual = 4.96835014186e-74, No Iterations 3
DILUPBiCGStab:  Solving for ILambda_2_0, Initial residual = 1, Final residual = 3.10918120783e-74, No Iterations 3
DILUPBiCGStab:  Solving for ILambda_3_0, Initial residual = 1, Final residual = 3.55416342731e-75, No Iterations 3
DILUPBiCGStab:  Solving for ILambda_4_0, Initial residual = 1, Final residual = 5.49349468717e-75, No Iterations 3
DILUPBiCGStab:  Solving for ILambda_5_0, Initial residual = 1, Final residual = 1.040797443e-73, No Iterations 3
DILUPBiCGStab:  Solving for ILambda_6_0, Initial residual = 1, Final residual = 8.66135010592e-74, No Iterations 3
DILUPBiCGStab:  Solving for ILambda_7_0, Initial residual = 1, Final residual = 7.58619407766e-75, No Iterations 3
DILUPBiCGStab:  Solving for ILambda_8_0, Initial residual = 1, Final residual = 1.5607421991e-61, No Iterations 53
DILUPBiCGStab:  Solving for ILambda_9_0, Initial residual = 1, Final residual = 3.37579241111e-61, No Iterations 80
DILUPBiCGStab:  Solving for ILambda_10_0, Initial residual = 1, Final residual = 7.65181806463e-61, No Iterations 92
DILUPBiCGStab:  Solving for ILambda_11_0, Initial residual = 1, Final residual = 2.57023283563e-61, No Iterations 96
DILUPBiCGStab:  Solving for ILambda_12_0, Initial residual = 1, Final residual = 9.44796826447e-61, No Iterations 95
DILUPBiCGStab:  Solving for ILambda_13_0, Initial residual = 1, Final residual = 2.47420076064e-61, No Iterations 94
DILUPBiCGStab:  Solving for ILambda_14_0, Initial residual = 1, Final residual = 4.55970362157e-61, No Iterations 77
DILUPBiCGStab:  Solving for ILambda_15_0, Initial residual = 1, Final residual = 6.97282133979e-61, No Iterations 50
DILUPBiCGStab:  Solving for ILambda_16_0, Initial residual = 1, Final residual = 5.98202525575e-61, No Iterations 32
DILUPBiCGStab:  Solving for ILambda_17_0, Initial residual = 1, Final residual = 7.61868955698e-62, No Iterations 33
DILUPBiCGStab:  Solving for ILambda_18_0, Initial residual = 1, Final residual = 8.15877705009e-62, No Iterations 35
DILUPBiCGStab:  Solving for ILambda_19_0, Initial residual = 1, Final residual = 3.24340308451e-62, No Iterations 34
DILUPBiCGStab:  Solving for ILambda_20_0, Initial residual = 1, Final residual = 6.49084831799e-62, No Iterations 35
DILUPBiCGStab:  Solving for ILambda_21_0, Initial residual = 1, Final residual = 1.67601633558e-61, No Iterations 34
DILUPBiCGStab:  Solving for ILambda_22_0, Initial residual = 1, Final residual = 3.11892449412e-62, No Iterations 33
DILUPBiCGStab:  Solving for ILambda_23_0, Initial residual = 1, Final residual = 7.27551993271e-62, No Iterations 33
DILUPBiCGStab:  Solving for ILambda_24_0, Initial residual = 1, Final residual = 1.95150878508e-61, No Iterations 50
DILUPBiCGStab:  Solving for ILambda_25_0, Initial residual = 1, Final residual = 3.17271282575e-61, No Iterations 76
DILUPBiCGStab:  Solving for ILambda_26_0, Initial residual = 1, Final residual = 4.20057871081e-61, No Iterations 93
DILUPBiCGStab:  Solving for ILambda_27_0, Initial residual = 1, Final residual = 3.42163096156e-61, No Iterations 97
DILUPBiCGStab:  Solving for ILambda_28_0, Initial residual = 1, Final residual = 3.93469781842e-61, No Iterations 95
DILUPBiCGStab:  Solving for ILambda_29_0, Initial residual = 1, Final residual = 6.64463459376e-61, No Iterations 93
DILUPBiCGStab:  Solving for ILambda_30_0, Initial residual = 1, Final residual = 7.71135286125e-61, No Iterations 79
DILUPBiCGStab:  Solving for ILambda_31_0, Initial residual = 1, Final residual = 4.62609550728e-61, No Iterations 52
DILUPBiCGStab:  Solving for ILambda_32_0, Initial residual = 1, Final residual = 5.03429245877e-72, No Iterations 3
DILUPBiCGStab:  Solving for ILambda_33_0, Initial residual = 1, Final residual = 1.30401870325e-73, No Iterations 3
DILUPBiCGStab:  Solving for ILambda_34_0, Initial residual = 1, Final residual = 5.11133811035e-74, No Iterations 3
DILUPBiCGStab:  Solving for ILambda_35_0, Initial residual = 1, Final residual = 7.73769923547e-74, No Iterations 3
DILUPBiCGStab:  Solving for ILambda_36_0, Initial residual = 1, Final residual = 8.90278441834e-74, No Iterations 3
DILUPBiCGStab:  Solving for ILambda_37_0, Initial residual = 1, Final residual = 1.1002384043e-72, No Iterations 3
DILUPBiCGStab:  Solving for ILambda_38_0, Initial residual = 1, Final residual = 2.32380862921e-73, No Iterations 3
DILUPBiCGStab:  Solving for ILambda_39_0, Initial residual = 1, Final residual = 8.52428673693e-73, No Iterations 3
DILUPBiCGStab:  Solving for ILambda_40_0, Initial residual = 1, Final residual = 3.12630206867e-61, No Iterations 55
DILUPBiCGStab:  Solving for ILambda_41_0, Initial residual = 1, Final residual = 2.5949325336e-61, No Iterations 80
DILUPBiCGStab:  Solving for ILambda_42_0, Initial residual = 1, Final residual = 2.26709923496e-61, No Iterations 92
DILUPBiCGStab:  Solving for ILambda_43_0, Initial residual = 1, Final residual = 9.70795195177e-62, No Iterations 102
DILUPBiCGStab:  Solving for ILambda_44_0, Initial residual = 1, Final residual = 5.97819288528e-61, No Iterations 103
DILUPBiCGStab:  Solving for ILambda_45_0, Initial residual = 1, Final residual = 8.21396348722e-61, No Iterations 94
DILUPBiCGStab:  Solving for ILambda_46_0, Initial residual = 1, Final residual = 7.0508959501e-61, No Iterations 77
DILUPBiCGStab:  Solving for ILambda_47_0, Initial residual = 1, Final residual = 3.62109755351e-61, No Iterations 53
DILUPBiCGStab:  Solving for ILambda_48_0, Initial residual = 1, Final residual = 1.65140726187e-61, No Iterations 39
DILUPBiCGStab:  Solving for ILambda_49_0, Initial residual = 1, Final residual = 1.03072588201e-62, No Iterations 41
DILUPBiCGStab:  Solving for ILambda_50_0, Initial residual = 1, Final residual = 6.32255618464e-62, No Iterations 43
DILUPBiCGStab:  Solving for ILambda_51_0, Initial residual = 1, Final residual = 1.89415649056e-62, No Iterations 45
DILUPBiCGStab:  Solving for ILambda_52_0, Initial residual = 1, Final residual = 8.25433833143e-62, No Iterations 46
DILUPBiCGStab:  Solving for ILambda_53_0, Initial residual = 1, Final residual = 6.71302586977e-61, No Iterations 45
DILUPBiCGStab:  Solving for ILambda_54_0, Initial residual = 1, Final residual = 2.85771258773e-61, No Iterations 41
DILUPBiCGStab:  Solving for ILambda_55_0, Initial residual = 1, Final residual = 2.42964358081e-61, No Iterations 39
DILUPBiCGStab:  Solving for ILambda_56_0, Initial residual = 1, Final residual = 1.13349270212e-61, No Iterations 54
DILUPBiCGStab:  Solving for ILambda_57_0, Initial residual = 1, Final residual = 5.16573449334e-61, No Iterations 76
DILUPBiCGStab:  Solving for ILambda_58_0, Initial residual = 1, Final residual = 2.1684491276e-61, No Iterations 95
DILUPBiCGStab:  Solving for ILambda_59_0, Initial residual = 1, Final residual = 4.01218419439e-61, No Iterations 103
DILUPBiCGStab:  Solving for ILambda_60_0, Initial residual = 1, Final residual = 4.21714921727e-61, No Iterations 102
DILUPBiCGStab:  Solving for ILambda_61_0, Initial residual = 1, Final residual = 2.56849551478e-61, No Iterations 91
DILUPBiCGStab:  Solving for ILambda_62_0, Initial residual = 1, Final residual = 4.14698133657e-61, No Iterations 80
DILUPBiCGStab:  Solving for ILambda_63_0, Initial residual = 1, Final residual = 5.75367343613e-61, No Iterations 55
DILUPBiCGStab:  Solving for ILambda_64_0, Initial residual = 1, Final residual = 2.18044452449e-61, No Iterations 36
DILUPBiCGStab:  Solving for ILambda_65_0, Initial residual = 1, Final residual = 7.06078778149e-61, No Iterations 40
DILUPBiCGStab:  Solving for ILambda_66_0, Initial residual = 1, Final residual = 6.25629688295e-61, No Iterations 39
DILUPBiCGStab:  Solving for ILambda_67_0, Initial residual = 1, Final residual = 4.52042127948e-63, No Iterations 41
DILUPBiCGStab:  Solving for ILambda_68_0, Initial residual = 1, Final residual = 3.71896110934e-62, No Iterations 40
DILUPBiCGStab:  Solving for ILambda_69_0, Initial residual = 1, Final residual = 3.883372592e-61, No Iterations 39
DILUPBiCGStab:  Solving for ILambda_70_0, Initial residual = 1, Final residual = 2.8714476941e-61, No Iterations 40
DILUPBiCGStab:  Solving for ILambda_71_0, Initial residual = 1, Final residual = 3.26291794936e-61, No Iterations 34
DILUPBiCGStab:  Solving for ILambda_72_0, Initial residual = 1, Final residual = 2.27643952017e-61, No Iterations 53
DILUPBiCGStab:  Solving for ILambda_73_0, Initial residual = 1, Final residual = 2.19146917427e-62, No Iterations 76
DILUPBiCGStab:  Solving for ILambda_74_0, Initial residual = 1, Final residual = 3.15727097612e-61, No Iterations 93
DILUPBiCGStab:  Solving for ILambda_75_0, Initial residual = 1, Final residual = 6.0522688582e-61, No Iterations 103
DILUPBiCGStab:  Solving for ILambda_76_0, Initial residual = 1, Final residual = 6.84470836589e-61, No Iterations 103
DILUPBiCGStab:  Solving for ILambda_77_0, Initial residual = 1, Final residual = 1.36316300007e-61, No Iterations 93
DILUPBiCGStab:  Solving for ILambda_78_0, Initial residual = 1, Final residual = 4.30923160074e-61, No Iterations 80
DILUPBiCGStab:  Solving for ILambda_79_0, Initial residual = 1, Final residual = 1.27947200005e-61, No Iterations 55
DILUPBiCGStab:  Solving for ILambda_80_0, Initial residual = 1, Final residual = 1.17165331091e-72, No Iterations 3
DILUPBiCGStab:  Solving for ILambda_81_0, Initial residual = 1, Final residual = 1.02762655244e-69, No Iterations 3
DILUPBiCGStab:  Solving for ILambda_82_0, Initial residual = 1, Final residual = 1.42783858143e-73, No Iterations 3
DILUPBiCGStab:  Solving for ILambda_83_0, Initial residual = 1, Final residual = 4.51533009598e-72, No Iterations 3
DILUPBiCGStab:  Solving for ILambda_84_0, Initial residual = 1, Final residual = 4.21793348506e-72, No Iterations 3
DILUPBiCGStab:  Solving for ILambda_85_0, Initial residual = 1, Final residual = 2.09704028566e-73, No Iterations 3
DILUPBiCGStab:  Solving for ILambda_86_0, Initial residual = 1, Final residual = 3.59209620865e-74, No Iterations 3
DILUPBiCGStab:  Solving for ILambda_87_0, Initial residual = 1, Final residual = 5.5948684986e-73, No Iterations 3
DILUPBiCGStab:  Solving for ILambda_88_0, Initial residual = 1, Final residual = 3.38380903251e-61, No Iterations 55
DILUPBiCGStab:  Solving for ILambda_89_0, Initial residual = 1, Final residual = 4.0919389241e-61, No Iterations 80
DILUPBiCGStab:  Solving for ILambda_90_0, Initial residual = 1, Final residual = 8.51201761435e-61, No Iterations 93
DILUPBiCGStab:  Solving for ILambda_91_0, Initial residual = 1, Final residual = 5.02128733331e-61, No Iterations 101
DILUPBiCGStab:  Solving for ILambda_92_0, Initial residual = 1, Final residual = 9.90318736103e-61, No Iterations 102
DILUPBiCGStab:  Solving for ILambda_93_0, Initial residual = 1, Final residual = 1.76080563853e-61, No Iterations 94
DILUPBiCGStab:  Solving for ILambda_94_0, Initial residual = 1, Final residual = 4.80955761881e-61, No Iterations 76
DILUPBiCGStab:  Solving for ILambda_95_0, Initial residual = 1, Final residual = 4.63295770751e-61, No Iterations 53
DILUPBiCGStab:  Solving for ILambda_96_0, Initial residual = 1, Final residual = 1.40692873764e-61, No Iterations 31
DILUPBiCGStab:  Solving for ILambda_97_0, Initial residual = 1, Final residual = 8.91792756167e-61, No Iterations 32
DILUPBiCGStab:  Solving for ILambda_98_0, Initial residual = 1, Final residual = 5.60983754432e-61, No Iterations 36
DILUPBiCGStab:  Solving for ILambda_99_0, Initial residual = 1, Final residual = 9.81153854384e-61, No Iterations 35
DILUPBiCGStab:  Solving for ILambda_100_0, Initial residual = 1, Final residual = 1.3366637529e-61, No Iterations 34
DILUPBiCGStab:  Solving for ILambda_101_0, Initial residual = 1, Final residual = 8.70496326298e-61, No Iterations 34
DILUPBiCGStab:  Solving for ILambda_102_0, Initial residual = 1, Final residual = 5.09332114949e-61, No Iterations 32
DILUPBiCGStab:  Solving for ILambda_103_0, Initial residual = 1, Final residual = 9.39523667304e-62, No Iterations 32
DILUPBiCGStab:  Solving for ILambda_104_0, Initial residual = 1, Final residual = 5.53278534347e-61, No Iterations 50
DILUPBiCGStab:  Solving for ILambda_105_0, Initial residual = 1, Final residual = 3.51194118693e-61, No Iterations 76
DILUPBiCGStab:  Solving for ILambda_106_0, Initial residual = 1, Final residual = 3.89763225284e-61, No Iterations 95
DILUPBiCGStab:  Solving for ILambda_107_0, Initial residual = 1, Final residual = 2.65644112374e-61, No Iterations 97
DILUPBiCGStab:  Solving for ILambda_108_0, Initial residual = 1, Final residual = 6.35226168656e-61, No Iterations 97
DILUPBiCGStab:  Solving for ILambda_109_0, Initial residual = 1, Final residual = 1.59903134346e-61, No Iterations 94
DILUPBiCGStab:  Solving for ILambda_110_0, Initial residual = 1, Final residual = 6.48754103091e-61, No Iterations 81
DILUPBiCGStab:  Solving for ILambda_111_0, Initial residual = 1, Final residual = 5.01128324347e-61, No Iterations 52
DILUPBiCGStab:  Solving for ILambda_112_0, Initial residual = 1, Final residual = 5.4864364804e-72, No Iterations 3
DILUPBiCGStab:  Solving for ILambda_113_0, Initial residual = 1, Final residual = 4.35597018993e-74, No Iterations 3
DILUPBiCGStab:  Solving for ILambda_114_0, Initial residual = 1, Final residual = 8.86655003293e-74, No Iterations 3
DILUPBiCGStab:  Solving for ILambda_115_0, Initial residual = 1, Final residual = 1.54879303036e-74, No Iterations 3
DILUPBiCGStab:  Solving for ILambda_116_0, Initial residual = 1, Final residual = 4.17153667111e-74, No Iterations 3
DILUPBiCGStab:  Solving for ILambda_117_0, Initial residual = 1, Final residual = 2.81321961662e-74, No Iterations 3
DILUPBiCGStab:  Solving for ILambda_118_0, Initial residual = 1, Final residual = 6.16472438851e-75, No Iterations 3
DILUPBiCGStab:  Solving for ILambda_119_0, Initial residual = 1, Final residual = 2.39129889058e-73, No Iterations 3
DILUPBiCGStab:  Solving for ILambda_120_0, Initial residual = 1, Final residual = 1.2274202837e-61, No Iterations 52
DILUPBiCGStab:  Solving for ILambda_121_0, Initial residual = 1, Final residual = 7.86645913132e-61, No Iterations 81
DILUPBiCGStab:  Solving for ILambda_122_0, Initial residual = 1, Final residual = 7.02800244624e-61, No Iterations 96
DILUPBiCGStab:  Solving for ILambda_123_0, Initial residual = 1, Final residual = 1.45394050157e-61, No Iterations 95
DILUPBiCGStab:  Solving for ILambda_124_0, Initial residual = 1, Final residual = 7.36995469181e-61, No Iterations 97
DILUPBiCGStab:  Solving for ILambda_125_0, Initial residual = 1, Final residual = 4.07829801785e-61, No Iterations 93
DILUPBiCGStab:  Solving for ILambda_126_0, Initial residual = 1, Final residual = 4.07950367603e-61, No Iterations 77
DILUPBiCGStab:  Solving for ILambda_127_0, Initial residual = 1, Final residual = 9.7332539304e-61, No Iterations 50
Radiation solver iter: 1
DILUPBiCGStab:  Solving for ILambda_0_0, Initial residual = 1.40316840105e-16, Final residual = 2.66332588997e-62, No Iterations 2
DILUPBiCGStab:  Solving for ILambda_1_0, Initial residual = 1.96160594912e-16, Final residual = 5.58151970474e-62, No Iterations 2
DILUPBiCGStab:  Solving for ILambda_2_0, Initial residual = 1.86425105664e-16, Final residual = 7.08864116737e-62, No Iterations 2
DILUPBiCGStab:  Solving for ILambda_3_0, Initial residual = 2.08765666843e-16, Final residual = 2.30491488577e-62, No Iterations 2
DILUPBiCGStab:  Solving for ILambda_4_0, Initial residual = 2.09455316756e-16, Final residual = 3.57061110738e-62, No Iterations 2
DILUPBiCGStab:  Solving for ILambda_5_0, Initial residual = 2.07674489502e-16, Final residual = 1.15416778626e-61, No Iterations 2
DILUPBiCGStab:  Solving for ILambda_6_0, Initial residual = 2.21561602394e-16, Final residual = 1.32515714877e-61, No Iterations 2
DILUPBiCGStab:  Solving for ILambda_7_0, Initial residual = 1.66893409422e-16, Final residual = 8.45054296405e-62, No Iterations 2
DILUPBiCGStab:  Solving for ILambda_8_0, Initial residual = 6.29562417023e-16, Final residual = 6.02340283715e-63, No Iterations 39
DILUPBiCGStab:  Solving for ILambda_9_0, Initial residual = 1.95646835257e-15, Final residual = 9.64349669332e-61, No Iterations 57
DILUPBiCGStab:  Solving for ILambda_10_0, Initial residual = 2.49756403726e-15, Final residual = 4.49921386604e-61, No Iterations 67
DILUPBiCGStab:  Solving for ILambda_11_0, Initial residual = 7.21970134682e-15, Final residual = 3.57709622377e-61, No Iterations 69
DILUPBiCGStab:  Solving for ILambda_12_0, Initial residual = 2.60941321329e-13, Final residual = 5.4469156906e-61, No Iterations 69
DILUPBiCGStab:  Solving for ILambda_13_0, Initial residual = 2.44317653108e-15, Final residual = 1.59680823234e-61, No Iterations 68
DILUPBiCGStab:  Solving for ILambda_14_0, Initial residual = 1.03204577741e-15, Final residual = 3.15929904391e-61, No Iterations 55
DILUPBiCGStab:  Solving for ILambda_15_0, Initial residual = 5.37688182726e-16, Final residual = 1.53939041428e-62, No Iterations 39
DILUPBiCGStab:  Solving for ILambda_16_0, Initial residual = 5.72714206302e-16, Final residual = 7.63014837633e-62, No Iterations 21
DILUPBiCGStab:  Solving for ILambda_17_0, Initial residual = 6.43919125802e-16, Final residual = 2.22250540867e-61, No Iterations 20
DILUPBiCGStab:  Solving for ILambda_18_0, Initial residual = 7.18803056292e-16, Final residual = 2.29618253687e-61, No Iterations 19
DILUPBiCGStab:  Solving for ILambda_19_0, Initial residual = 7.26924830177e-16, Final residual = 5.72814932612e-62, No Iterations 22
DILUPBiCGStab:  Solving for ILambda_20_0, Initial residual = 7.08021301289e-16, Final residual = 2.75163464941e-62, No Iterations 22
DILUPBiCGStab:  Solving for ILambda_21_0, Initial residual = 6.69586161139e-16, Final residual = 6.14630972484e-61, No Iterations 20
DILUPBiCGStab:  Solving for ILambda_22_0, Initial residual = 6.2121039159e-16, Final residual = 3.73972081364e-61, No Iterations 19
DILUPBiCGStab:  Solving for ILambda_23_0, Initial residual = 5.37995340586e-16, Final residual = 2.56987504111e-61, No Iterations 21
DILUPBiCGStab:  Solving for ILambda_24_0, Initial residual = 5.56333756798e-16, Final residual = 2.88757968903e-61, No Iterations 39
DILUPBiCGStab:  Solving for ILambda_25_0, Initial residual = 1.03676982195e-15, Final residual = 2.31804327932e-61, No Iterations 55
DILUPBiCGStab:  Solving for ILambda_26_0, Initial residual = 2.46226030117e-15, Final residual = 4.3166983642e-61, No Iterations 66
DILUPBiCGStab:  Solving for ILambda_27_0, Initial residual = 2.63745181748e-13, Final residual = 2.40567417822e-61, No Iterations 66
DILUPBiCGStab:  Solving for ILambda_28_0, Initial residual = 7.0420356576e-15, Final residual = 5.89762482793e-61, No Iterations 72
DILUPBiCGStab:  Solving for ILambda_29_0, Initial residual = 2.47671669073e-15, Final residual = 8.75828437883e-61, No Iterations 66
DILUPBiCGStab:  Solving for ILambda_30_0, Initial residual = 1.98431702026e-15, Final residual = 4.5429851405e-61, No Iterations 54
DILUPBiCGStab:  Solving for ILambda_31_0, Initial residual = 6.18720241703e-16, Final residual = 7.28010541425e-62, No Iterations 38
DILUPBiCGStab:  Solving for ILambda_32_0, Initial residual = 7.66855012028e-16, Final residual = 6.67689827869e-61, No Iterations 2
DILUPBiCGStab:  Solving for ILambda_33_0, Initial residual = 8.08884353777e-16, Final residual = 2.72254712236e-61, No Iterations 2
DILUPBiCGStab:  Solving for ILambda_34_0, Initial residual = 8.3285031498e-16, Final residual = 3.64891121678e-61, No Iterations 2
DILUPBiCGStab:  Solving for ILambda_35_0, Initial residual = 8.0593947939e-16, Final residual = 2.78139451458e-61, No Iterations 2
DILUPBiCGStab:  Solving for ILambda_36_0, Initial residual = 8.18719268865e-16, Final residual = 1.62735567499e-61, No Iterations 2
DILUPBiCGStab:  Solving for ILambda_37_0, Initial residual = 8.61614975085e-16, Final residual = 8.019753081e-61, No Iterations 2
DILUPBiCGStab:  Solving for ILambda_38_0, Initial residual = 8.68431508647e-16, Final residual = 3.83892961464e-61, No Iterations 2
DILUPBiCGStab:  Solving for ILambda_39_0, Initial residual = 8.27818772659e-16, Final residual = 4.68432891117e-61, No Iterations 2
DILUPBiCGStab:  Solving for ILambda_40_0, Initial residual = 2.90172229814e-15, Final residual = 7.26473402619e-61, No Iterations 40
DILUPBiCGStab:  Solving for ILambda_41_0, Initial residual = 3.16160478595e-14, Final residual = 5.73546921593e-61, No Iterations 59
DILUPBiCGStab:  Solving for ILambda_42_0, Initial residual = 1.97025303985e-14, Final residual = 5.95782053056e-61, No Iterations 70
DILUPBiCGStab:  Solving for ILambda_43_0, Initial residual = 2.72801189627e-14, Final residual = 3.27405513901e-61, No Iterations 76
DILUPBiCGStab:  Solving for ILambda_44_0, Initial residual = 3.90803547865e-14, Final residual = 3.62666729881e-61, No Iterations 74
DILUPBiCGStab:  Solving for ILambda_45_0, Initial residual = 1.5715073432e-14, Final residual = 5.94407550324e-61, No Iterations 66
DILUPBiCGStab:  Solving for ILambda_46_0, Initial residual = 1.33247056182e-14, Final residual = 2.61346329989e-61, No Iterations 58
DILUPBiCGStab:  Solving for ILambda_47_0, Initial residual = 7.7576164669e-15, Final residual = 3.18440941195e-61, No Iterations 40
DILUPBiCGStab:  Solving for ILambda_48_0, Initial residual = 4.18205398386e-15, Final residual = 2.17406356862e-61, No Iterations 28
DILUPBiCGStab:  Solving for ILambda_49_0, Initial residual = 9.22807143212e-15, Final residual = 2.56291811197e-61, No Iterations 25
DILUPBiCGStab:  Solving for ILambda_50_0, Initial residual = 1.21220549158e-14, Final residual = 2.76616111379e-61, No Iterations 26
DILUPBiCGStab:  Solving for ILambda_51_0, Initial residual = 1.39314143263e-14, Final residual = 4.15217097874e-61, No Iterations 29
DILUPBiCGStab:  Solving for ILambda_52_0, Initial residual = 1.35321214306e-14, Final residual = 8.72296666304e-61, No Iterations 27
DILUPBiCGStab:  Solving for ILambda_53_0, Initial residual = 1.14477208309e-14, Final residual = 5.49999884886e-62, No Iterations 26
DILUPBiCGStab:  Solving for ILambda_54_0, Initial residual = 8.68589927151e-15, Final residual = 4.81851781842e-61, No Iterations 28
DILUPBiCGStab:  Solving for ILambda_55_0, Initial residual = 3.97141337514e-15, Final residual = 1.9318923954e-61, No Iterations 23
DILUPBiCGStab:  Solving for ILambda_56_0, Initial residual = 7.75435079547e-15, Final residual = 3.12956161515e-61, No Iterations 40
DILUPBiCGStab:  Solving for ILambda_57_0, Initial residual = 1.30543733897e-14, Final residual = 1.53444540103e-61, No Iterations 59
DILUPBiCGStab:  Solving for ILambda_58_0, Initial residual = 1.59310507439e-14, Final residual = 8.16296095353e-61, No Iterations 66
DILUPBiCGStab:  Solving for ILambda_59_0, Initial residual = 3.9402875383e-14, Final residual = 2.21509266882e-61, No Iterations 72
DILUPBiCGStab:  Solving for ILambda_60_0, Initial residual = 2.10053599422e-14, Final residual = 2.06331998626e-61, No Iterations 78
DILUPBiCGStab:  Solving for ILambda_61_0, Initial residual = 1.97389747274e-14, Final residual = 3.38872079167e-61, No Iterations 70
DILUPBiCGStab:  Solving for ILambda_62_0, Initial residual = 2.93204545403e-14, Final residual = 9.85533771158e-62, No Iterations 61
DILUPBiCGStab:  Solving for ILambda_63_0, Initial residual = 2.87744879667e-15, Final residual = 3.21437566676e-61, No Iterations 41
DILUPBiCGStab:  Solving for ILambda_64_0, Initial residual = 9.21478431594e-15, Final residual = 1.24002922651e-61, No Iterations 26
DILUPBiCGStab:  Solving for ILambda_65_0, Initial residual = 4.08709550905e-15, Final residual = 8.49502926021e-61, No Iterations 26
DILUPBiCGStab:  Solving for ILambda_66_0, Initial residual = 4.50587693996e-14, Final residual = 3.30458947919e-61, No Iterations 23
DILUPBiCGStab:  Solving for ILambda_67_0, Initial residual = 1.20229571819e-14, Final residual = 4.81494076681e-61, No Iterations 24
DILUPBiCGStab:  Solving for ILambda_68_0, Initial residual = 1.23239547186e-14, Final residual = 2.33191014056e-61, No Iterations 24
DILUPBiCGStab:  Solving for ILambda_69_0, Initial residual = 4.84093402163e-14, Final residual = 3.83323221968e-61, No Iterations 22
DILUPBiCGStab:  Solving for ILambda_70_0, Initial residual = 4.19979571758e-15, Final residual = 2.74160653001e-62, No Iterations 24
DILUPBiCGStab:  Solving for ILambda_71_0, Initial residual = 9.8923970741e-15, Final residual = 4.01125707938e-62, No Iterations 26
DILUPBiCGStab:  Solving for ILambda_72_0, Initial residual = 2.81995065539e-14, Final residual = 9.70586540923e-62, No Iterations 41
DILUPBiCGStab:  Solving for ILambda_73_0, Initial residual = 2.98916615104e-14, Final residual = 2.5199357403e-61, No Iterations 56
DILUPBiCGStab:  Solving for ILambda_74_0, Initial residual = 1.35605870484e-14, Final residual = 5.34729599106e-61, No Iterations 68
DILUPBiCGStab:  Solving for ILambda_75_0, Initial residual = 2.41826611789e-14, Final residual = 4.64786108191e-61, No Iterations 74
DILUPBiCGStab:  Solving for ILambda_76_0, Initial residual = 2.37246591097e-14, Final residual = 5.63925248503e-61, No Iterations 76
DILUPBiCGStab:  Solving for ILambda_77_0, Initial residual = 4.6932556329e-14, Final residual = 4.54497389649e-61, No Iterations 69
DILUPBiCGStab:  Solving for ILambda_78_0, Initial residual = 8.78800314999e-15, Final residual = 2.15857094987e-61, No Iterations 59
DILUPBiCGStab:  Solving for ILambda_79_0, Initial residual = 3.10461644429e-15, Final residual = 7.23343421382e-61, No Iterations 42
DILUPBiCGStab:  Solving for ILambda_80_0, Initial residual = 8.25600386735e-16, Final residual = 9.64622430821e-75, No Iterations 2
DILUPBiCGStab:  Solving for ILambda_81_0, Initial residual = 8.94857707007e-16, Final residual = 2.18363032305e-61, No Iterations 2
DILUPBiCGStab:  Solving for ILambda_82_0, Initial residual = 9.04093517678e-16, Final residual = 8.54618375103e-61, No Iterations 2
DILUPBiCGStab:  Solving for ILambda_83_0, Initial residual = 8.3868193788e-16, Final residual = 3.52955015077e-61, No Iterations 2
DILUPBiCGStab:  Solving for ILambda_84_0, Initial residual = 7.93599373073e-16, Final residual = 6.18421345557e-61, No Iterations 2
DILUPBiCGStab:  Solving for ILambda_85_0, Initial residual = 8.29295883718e-16, Final residual = 4.08757960874e-75, No Iterations 2
DILUPBiCGStab:  Solving for ILambda_86_0, Initial residual = 7.98675444573e-16, Final residual = 1.01852595972e-61, No Iterations 2
DILUPBiCGStab:  Solving for ILambda_87_0, Initial residual = 7.39138232287e-16, Final residual = 5.78454596229e-61, No Iterations 2
DILUPBiCGStab:  Solving for ILambda_88_0, Initial residual = 3.06407169178e-15, Final residual = 5.87485993072e-61, No Iterations 41
DILUPBiCGStab:  Solving for ILambda_89_0, Initial residual = 8.9704425117e-15, Final residual = 5.92180281327e-61, No Iterations 58
DILUPBiCGStab:  Solving for ILambda_90_0, Initial residual = 4.5645851617e-14, Final residual = 9.58097426416e-61, No Iterations 67
DILUPBiCGStab:  Solving for ILambda_91_0, Initial residual = 2.65148952143e-14, Final residual = 2.91447160619e-61, No Iterations 73
DILUPBiCGStab:  Solving for ILambda_92_0, Initial residual = 2.48454668802e-14, Final residual = 3.9539014727e-62, No Iterations 75
DILUPBiCGStab:  Solving for ILambda_93_0, Initial residual = 1.36146324702e-14, Final residual = 5.05219605194e-61, No Iterations 68
DILUPBiCGStab:  Solving for ILambda_94_0, Initial residual = 2.99705203075e-14, Final residual = 9.06423442501e-61, No Iterations 55
DILUPBiCGStab:  Solving for ILambda_95_0, Initial residual = 2.75490019534e-14, Final residual = 2.00782751646e-61, No Iterations 41
DILUPBiCGStab:  Solving for ILambda_96_0, Initial residual = 2.41466154031e-15, Final residual = 9.09705961361e-61, No Iterations 19
DILUPBiCGStab:  Solving for ILambda_97_0, Initial residual = 8.35649789702e-16, Final residual = 2.93189714614e-62, No Iterations 22
DILUPBiCGStab:  Solving for ILambda_98_0, Initial residual = 7.82169862978e-16, Final residual = 2.48049391407e-61, No Iterations 22
DILUPBiCGStab:  Solving for ILambda_99_0, Initial residual = 7.86306232828e-16, Final residual = 2.93497540085e-62, No Iterations 22
DILUPBiCGStab:  Solving for ILambda_100_0, Initial residual = 7.98891037184e-16, Final residual = 1.68646936889e-61, No Iterations 20
DILUPBiCGStab:  Solving for ILambda_101_0, Initial residual = 8.21066398508e-16, Final residual = 6.95955710085e-62, No Iterations 22
DILUPBiCGStab:  Solving for ILambda_102_0, Initial residual = 8.76087808147e-16, Final residual = 4.16957949168e-61, No Iterations 19
DILUPBiCGStab:  Solving for ILambda_103_0, Initial residual = 2.60623936885e-15, Final residual = 1.22002670147e-61, No Iterations 20
DILUPBiCGStab:  Solving for ILambda_104_0, Initial residual = 5.42699839881e-16, Final residual = 3.58549034756e-63, No Iterations 40
DILUPBiCGStab:  Solving for ILambda_105_0, Initial residual = 9.9469573858e-16, Final residual = 3.43733806905e-61, No Iterations 58
DILUPBiCGStab:  Solving for ILambda_106_0, Initial residual = 2.06717564663e-14, Final residual = 9.89934579351e-61, No Iterations 63
DILUPBiCGStab:  Solving for ILambda_107_0, Initial residual = 1.45946654002e-13, Final residual = 6.78955710499e-61, No Iterations 67
DILUPBiCGStab:  Solving for ILambda_108_0, Initial residual = 1.34368798471e-14, Final residual = 3.97894402488e-61, No Iterations 70
DILUPBiCGStab:  Solving for ILambda_109_0, Initial residual = 3.86296672299e-15, Final residual = 6.28353744751e-61, No Iterations 67
DILUPBiCGStab:  Solving for ILambda_110_0, Initial residual = 7.39156332889e-15, Final residual = 3.6165799719e-61, No Iterations 56
DILUPBiCGStab:  Solving for ILambda_111_0, Initial residual = 2.6435724543e-15, Final residual = 5.2507312142e-61, No Iterations 39
DILUPBiCGStab:  Solving for ILambda_112_0, Initial residual = 1.56254632176e-16, Final residual = 2.31315082285e-62, No Iterations 2
DILUPBiCGStab:  Solving for ILambda_113_0, Initial residual = 2.08316635959e-16, Final residual = 5.24564263351e-62, No Iterations 2
DILUPBiCGStab:  Solving for ILambda_114_0, Initial residual = 2.07549314921e-16, Final residual = 1.4315546296e-62, No Iterations 2
DILUPBiCGStab:  Solving for ILambda_115_0, Initial residual = 2.08347143546e-16, Final residual = 3.62986678512e-62, No Iterations 2
DILUPBiCGStab:  Solving for ILambda_116_0, Initial residual = 2.09159121233e-16, Final residual = 9.26225637574e-62, No Iterations 2
DILUPBiCGStab:  Solving for ILambda_117_0, Initial residual = 1.86996634281e-16, Final residual = 2.11889961815e-62, No Iterations 2
DILUPBiCGStab:  Solving for ILambda_118_0, Initial residual = 1.92383305304e-16, Final residual = 1.36532119242e-62, No Iterations 2
DILUPBiCGStab:  Solving for ILambda_119_0, Initial residual = 1.42454155731e-16, Final residual = 1.39436838352e-62, No Iterations 2
DILUPBiCGStab:  Solving for ILambda_120_0, Initial residual = 2.62928164701e-15, Final residual = 1.4769427631e-63, No Iterations 40
DILUPBiCGStab:  Solving for ILambda_121_0, Initial residual = 7.73329554698e-15, Final residual = 8.58066452875e-61, No Iterations 55
DILUPBiCGStab:  Solving for ILambda_122_0, Initial residual = 3.97748884629e-15, Final residual = 3.22854307894e-61, No Iterations 66
DILUPBiCGStab:  Solving for ILambda_123_0, Initial residual = 1.43646957327e-14, Final residual = 3.51338568351e-61, No Iterations 72
DILUPBiCGStab:  Solving for ILambda_124_0, Initial residual = 1.48982206878e-13, Final residual = 2.45378209114e-61, No Iterations 69
DILUPBiCGStab:  Solving for ILambda_125_0, Initial residual = 2.10156537458e-14, Final residual = 4.92146307865e-61, No Iterations 66
DILUPBiCGStab:  Solving for ILambda_126_0, Initial residual = 1.0251879014e-15, Final residual = 2.77901097611e-61, No Iterations 58
DILUPBiCGStab:  Solving for ILambda_127_0, Initial residual = 5.49395150401e-16, Final residual = 1.93741064568e-61, No Iterations 40
min/max(T) = 1000, 1000
PIMPLE: iteration 2
Radiation solver iter: 0
DILUPBiCGStab:  Solving for ILambda_0_0, Initial residual = 1.33216433024e-16, Final residual = 3.42090117016e-61, No Iterations 2
DILUPBiCGStab:  Solving for ILambda_1_0, Initial residual = 1.83382844942e-16, Final residual = 2.18618500051e-62, No Iterations 2
DILUPBiCGStab:  Solving for ILambda_2_0, Initial residual = 1.75212377889e-16, Final residual = 2.73790386867e-62, No Iterations 2
DILUPBiCGStab:  Solving for ILambda_3_0, Initial residual = 2.03650929739e-16, Final residual = 5.16692570172e-62, No Iterations 2
DILUPBiCGStab:  Solving for ILambda_4_0, Initial residual = 2.03342199761e-16, Final residual = 6.48990606362e-76, No Iterations 2
DILUPBiCGStab:  Solving for ILambda_5_0, Initial residual = 2.048597185e-16, Final residual = 9.37592914573e-62, No Iterations 2
DILUPBiCGStab:  Solving for ILambda_6_0, Initial residual = 2.12564498716e-16, Final residual = 9.20996743643e-62, No Iterations 2
DILUPBiCGStab:  Solving for ILambda_7_0, Initial residual = 1.61774805757e-16, Final residual = 8.46464671803e-63, No Iterations 2
DILUPBiCGStab:  Solving for ILambda_8_0, Initial residual = 1.78142508359e-16, Final residual = 2.01692460027e-61, No Iterations 39
DILUPBiCGStab:  Solving for ILambda_9_0, Initial residual = 2.85899255659e-16, Final residual = 8.42493862285e-61, No Iterations 55
DILUPBiCGStab:  Solving for ILambda_10_0, Initial residual = 3.23369200355e-16, Final residual = 2.19295368824e-61, No Iterations 65
DILUPBiCGStab:  Solving for ILambda_11_0, Initial residual = 3.42761487973e-16, Final residual = 9.09298946947e-61, No Iterations 76
DILUPBiCGStab:  Solving for ILambda_12_0, Initial residual = 3.77548634597e-16, Final residual = 5.63877244978e-61, No Iterations 74
DILUPBiCGStab:  Solving for ILambda_13_0, Initial residual = 3.4751514782e-16, Final residual = 2.57475158545e-61, No Iterations 67
DILUPBiCGStab:  Solving for ILambda_14_0, Initial residual = 3.26224464018e-16, Final residual = 6.96649713271e-61, No Iterations 57
DILUPBiCGStab:  Solving for ILambda_15_0, Initial residual = 1.90406090773e-16, Final residual = 1.73531068179e-61, No Iterations 39
DILUPBiCGStab:  Solving for ILambda_16_0, Initial residual = 1.68888384637e-16, Final residual = 2.57991933634e-61, No Iterations 19
DILUPBiCGStab:  Solving for ILambda_17_0, Initial residual = 2.2393804991e-16, Final residual = 4.77837728609e-61, No Iterations 19
DILUPBiCGStab:  Solving for ILambda_18_0, Initial residual = 2.24663348661e-16, Final residual = 1.47907230384e-61, No Iterations 19
DILUPBiCGStab:  Solving for ILambda_19_0, Initial residual = 2.2008262179e-16, Final residual = 5.72769555993e-61, No Iterations 21
DILUPBiCGStab:  Solving for ILambda_20_0, Initial residual = 2.1629912869e-16, Final residual = 2.82745251643e-61, No Iterations 20
DILUPBiCGStab:  Solving for ILambda_21_0, Initial residual = 1.93435137206e-16, Final residual = 5.23411222112e-61, No Iterations 20
DILUPBiCGStab:  Solving for ILambda_22_0, Initial residual = 1.92048359197e-16, Final residual = 3.05526840319e-61, No Iterations 19
DILUPBiCGStab:  Solving for ILambda_23_0, Initial residual = 1.41934294559e-16, Final residual = 2.33581598584e-61, No Iterations 19
DILUPBiCGStab:  Solving for ILambda_24_0, Initial residual = 2.14461025355e-16, Final residual = 9.25036354268e-61, No Iterations 37
DILUPBiCGStab:  Solving for ILambda_25_0, Initial residual = 2.94816946135e-16, Final residual = 5.52782543025e-61, No Iterations 55
DILUPBiCGStab:  Solving for ILambda_26_0, Initial residual = 3.37782292932e-16, Final residual = 5.17807242283e-61, No Iterations 66
DILUPBiCGStab:  Solving for ILambda_27_0, Initial residual = 3.64736850397e-16, Final residual = 2.9770091893e-61, No Iterations 70
DILUPBiCGStab:  Solving for ILambda_28_0, Initial residual = 3.58532168153e-16, Final residual = 1.98848811745e-61, No Iterations 73
DILUPBiCGStab:  Solving for ILambda_29_0, Initial residual = 3.19157921208e-16, Final residual = 2.92977275451e-61, No Iterations 67
DILUPBiCGStab:  Solving for ILambda_30_0, Initial residual = 2.81581284939e-16, Final residual = 3.59469599397e-61, No Iterations 58
DILUPBiCGStab:  Solving for ILambda_31_0, Initial residual = 1.90771544466e-16, Final residual = 5.15479998022e-61, No Iterations 39
DILUPBiCGStab:  Solving for ILambda_32_0, Initial residual = 7.63785897832e-16, Final residual = 9.48698498566e-61, No Iterations 2
DILUPBiCGStab:  Solving for ILambda_33_0, Initial residual = 7.9974737409e-16, Final residual = 1.26965514489e-61, No Iterations 2
DILUPBiCGStab:  Solving for ILambda_34_0, Initial residual = 8.04474265441e-16, Final residual = 3.05855278201e-61, No Iterations 2
DILUPBiCGStab:  Solving for ILambda_35_0, Initial residual = 7.69041955594e-16, Final residual = 1.04042664989e-61, No Iterations 2
DILUPBiCGStab:  Solving for ILambda_36_0, Initial residual = 7.97781206874e-16, Final residual = 1.02776486289e-61, No Iterations 2
DILUPBiCGStab:  Solving for ILambda_37_0, Initial residual = 8.63492253901e-16, Final residual = 8.46330547388e-61, No Iterations 2
DILUPBiCGStab:  Solving for ILambda_38_0, Initial residual = 8.61675820299e-16, Final residual = 2.5943675174e-61, No Iterations 2
DILUPBiCGStab:  Solving for ILambda_39_0, Initial residual = 8.11851407775e-16, Final residual = 5.6043775476e-61, No Iterations 2
DILUPBiCGStab:  Solving for ILambda_40_0, Initial residual = 9.89547137202e-16, Final residual = 9.80625443726e-61, No Iterations 40
DILUPBiCGStab:  Solving for ILambda_41_0, Initial residual = 1.55859818116e-15, Final residual = 4.67763695343e-61, No Iterations 60
DILUPBiCGStab:  Solving for ILambda_42_0, Initial residual = 1.58772510824e-15, Final residual = 6.14036760727e-61, No Iterations 70
DILUPBiCGStab:  Solving for ILambda_43_0, Initial residual = 1.66373199834e-15, Final residual = 7.77337361648e-61, No Iterations 73
DILUPBiCGStab:  Solving for ILambda_44_0, Initial residual = 1.71135238645e-15, Final residual = 4.28379983504e-61, No Iterations 73
DILUPBiCGStab:  Solving for ILambda_45_0, Initial residual = 1.70633665029e-15, Final residual = 4.75762004694e-61, No Iterations 68
DILUPBiCGStab:  Solving for ILambda_46_0, Initial residual = 1.44574254541e-15, Final residual = 4.5093922104e-61, No Iterations 58
DILUPBiCGStab:  Solving for ILambda_47_0, Initial residual = 1.08456569242e-15, Final residual = 3.09832354376e-63, No Iterations 42
DILUPBiCGStab:  Solving for ILambda_48_0, Initial residual = 8.24964826176e-16, Final residual = 1.08703320012e-61, No Iterations 23
DILUPBiCGStab:  Solving for ILambda_49_0, Initial residual = 9.04379728127e-16, Final residual = 3.5790565483e-62, No Iterations 23
DILUPBiCGStab:  Solving for ILambda_50_0, Initial residual = 9.40580081337e-16, Final residual = 9.96869977153e-61, No Iterations 23
DILUPBiCGStab:  Solving for ILambda_51_0, Initial residual = 8.8547335243e-16, Final residual = 5.52477774602e-62, No Iterations 22
DILUPBiCGStab:  Solving for ILambda_52_0, Initial residual = 8.41881580356e-16, Final residual = 2.27419714602e-61, No Iterations 24
DILUPBiCGStab:  Solving for ILambda_53_0, Initial residual = 8.76540153223e-16, Final residual = 1.97045493614e-62, No Iterations 25
DILUPBiCGStab:  Solving for ILambda_54_0, Initial residual = 8.87746040161e-16, Final residual = 1.73695821646e-61, No Iterations 23
DILUPBiCGStab:  Solving for ILambda_55_0, Initial residual = 8.20486244484e-16, Final residual = 6.45452642122e-61, No Iterations 24
DILUPBiCGStab:  Solving for ILambda_56_0, Initial residual = 9.94884265264e-16, Final residual = 4.13592419732e-61, No Iterations 41
DILUPBiCGStab:  Solving for ILambda_57_0, Initial residual = 1.39126330402e-15, Final residual = 5.67852840027e-61, No Iterations 58
DILUPBiCGStab:  Solving for ILambda_58_0, Initial residual = 1.71585119323e-15, Final residual = 3.90900571012e-61, No Iterations 68
DILUPBiCGStab:  Solving for ILambda_59_0, Initial residual = 1.7533348196e-15, Final residual = 9.69904341487e-61, No Iterations 72
DILUPBiCGStab:  Solving for ILambda_60_0, Initial residual = 1.69678701088e-15, Final residual = 6.78768791946e-61, No Iterations 75
DILUPBiCGStab:  Solving for ILambda_61_0, Initial residual = 1.79029386844e-15, Final residual = 9.42464309083e-61, No Iterations 71
DILUPBiCGStab:  Solving for ILambda_62_0, Initial residual = 1.58596900997e-15, Final residual = 3.85031800488e-61, No Iterations 58
DILUPBiCGStab:  Solving for ILambda_63_0, Initial residual = 9.44696396061e-16, Final residual = 1.80937427438e-63, No Iterations 42
DILUPBiCGStab:  Solving for ILambda_64_0, Initial residual = 9.30009075124e-16, Final residual = 4.8053439923e-62, No Iterations 23
DILUPBiCGStab:  Solving for ILambda_65_0, Initial residual = 8.43303454838e-16, Final residual = 8.41787027431e-61, No Iterations 24
DILUPBiCGStab:  Solving for ILambda_66_0, Initial residual = 9.94310144779e-16, Final residual = 1.98860732169e-62, No Iterations 22
DILUPBiCGStab:  Solving for ILambda_67_0, Initial residual = 9.91822459294e-16, Final residual = 1.32910459412e-61, No Iterations 25
DILUPBiCGStab:  Solving for ILambda_68_0, Initial residual = 1.12252851735e-15, Final residual = 7.95573061057e-61, No Iterations 26
DILUPBiCGStab:  Solving for ILambda_69_0, Initial residual = 1.11627794625e-15, Final residual = 9.09397887415e-62, No Iterations 23
DILUPBiCGStab:  Solving for ILambda_70_0, Initial residual = 9.57790949048e-16, Final residual = 4.81097878393e-61, No Iterations 24
DILUPBiCGStab:  Solving for ILambda_71_0, Initial residual = 9.43593194144e-16, Final residual = 7.5339701389e-61, No Iterations 23
DILUPBiCGStab:  Solving for ILambda_72_0, Initial residual = 1.08928026177e-15, Final residual = 9.45712355053e-61, No Iterations 42
DILUPBiCGStab:  Solving for ILambda_73_0, Initial residual = 1.32280173038e-15, Final residual = 9.23130838813e-61, No Iterations 57
DILUPBiCGStab:  Solving for ILambda_74_0, Initial residual = 1.46485176681e-15, Final residual = 4.94177024206e-61, No Iterations 68
DILUPBiCGStab:  Solving for ILambda_75_0, Initial residual = 1.62129501066e-15, Final residual = 9.8175901571e-61, No Iterations 78
DILUPBiCGStab:  Solving for ILambda_76_0, Initial residual = 1.7177685823e-15, Final residual = 4.14085280735e-61, No Iterations 80
DILUPBiCGStab:  Solving for ILambda_77_0, Initial residual = 1.57109728385e-15, Final residual = 4.03457258263e-61, No Iterations 69
DILUPBiCGStab:  Solving for ILambda_78_0, Initial residual = 1.33682553256e-15, Final residual = 9.51867867219e-61, No Iterations 57
DILUPBiCGStab:  Solving for ILambda_79_0, Initial residual = 9.53310837728e-16, Final residual = 8.74445212017e-61, No Iterations 41
DILUPBiCGStab:  Solving for ILambda_80_0, Initial residual = 8.05066061635e-16, Final residual = 6.94701452754e-74, No Iterations 2
DILUPBiCGStab:  Solving for ILambda_81_0, Initial residual = 8.8783127445e-16, Final residual = 4.70747140159e-74, No Iterations 2
DILUPBiCGStab:  Solving for ILambda_82_0, Initial residual = 8.60177549385e-16, Final residual = 1.10660234788e-61, No Iterations 2
DILUPBiCGStab:  Solving for ILambda_83_0, Initial residual = 8.32350211508e-16, Final residual = 3.63263688577e-61, No Iterations 2
DILUPBiCGStab:  Solving for ILambda_84_0, Initial residual = 8.60907861917e-16, Final residual = 2.72167898796e-61, No Iterations 2
DILUPBiCGStab:  Solving for ILambda_85_0, Initial residual = 8.03977476164e-16, Final residual = 6.65952384976e-61, No Iterations 2
DILUPBiCGStab:  Solving for ILambda_86_0, Initial residual = 7.86860850553e-16, Final residual = 1.75321648618e-61, No Iterations 2
DILUPBiCGStab:  Solving for ILambda_87_0, Initial residual = 7.41390185056e-16, Final residual = 1.16542577222e-73, No Iterations 2
DILUPBiCGStab:  Solving for ILambda_88_0, Initial residual = 9.90311781393e-16, Final residual = 1.87940148082e-61, No Iterations 41
DILUPBiCGStab:  Solving for ILambda_89_0, Initial residual = 1.27985503655e-15, Final residual = 7.21991395149e-61, No Iterations 59
DILUPBiCGStab:  Solving for ILambda_90_0, Initial residual = 1.61964071765e-15, Final residual = 5.41247807973e-61, No Iterations 69
DILUPBiCGStab:  Solving for ILambda_91_0, Initial residual = 1.6844607562e-15, Final residual = 2.74172157464e-61, No Iterations 76
DILUPBiCGStab:  Solving for ILambda_92_0, Initial residual = 1.64498291943e-15, Final residual = 7.16908267304e-61, No Iterations 72
DILUPBiCGStab:  Solving for ILambda_93_0, Initial residual = 1.44865164349e-15, Final residual = 3.83288430269e-61, No Iterations 68
DILUPBiCGStab:  Solving for ILambda_94_0, Initial residual = 1.3499589211e-15, Final residual = 3.06826921616e-61, No Iterations 60
DILUPBiCGStab:  Solving for ILambda_95_0, Initial residual = 1.0355585263e-15, Final residual = 3.57024519113e-61, No Iterations 40
DILUPBiCGStab:  Solving for ILambda_96_0, Initial residual = 1.6331144485e-16, Final residual = 4.52494608879e-61, No Iterations 20
DILUPBiCGStab:  Solving for ILambda_97_0, Initial residual = 2.07587173221e-16, Final residual = 1.68707180953e-61, No Iterations 19
DILUPBiCGStab:  Solving for ILambda_98_0, Initial residual = 2.04780305298e-16, Final residual = 2.07349354107e-61, No Iterations 21
DILUPBiCGStab:  Solving for ILambda_99_0, Initial residual = 2.42383625083e-16, Final residual = 4.99562056408e-61, No Iterations 19
DILUPBiCGStab:  Solving for ILambda_100_0, Initial residual = 2.13589817061e-16, Final residual = 3.26191105263e-61, No Iterations 20
DILUPBiCGStab:  Solving for ILambda_101_0, Initial residual = 2.18972621524e-16, Final residual = 2.28233783692e-61, No Iterations 20
DILUPBiCGStab:  Solving for ILambda_102_0, Initial residual = 2.5766720363e-16, Final residual = 8.2761773955e-62, No Iterations 20
DILUPBiCGStab:  Solving for ILambda_103_0, Initial residual = 1.84157091798e-16, Final residual = 2.87198166119e-61, No Iterations 19
DILUPBiCGStab:  Solving for ILambda_104_0, Initial residual = 1.58957357906e-16, Final residual = 3.14773166573e-61, No Iterations 38
DILUPBiCGStab:  Solving for ILambda_105_0, Initial residual = 2.57567182935e-16, Final residual = 1.26054053245e-61, No Iterations 57
DILUPBiCGStab:  Solving for ILambda_106_0, Initial residual = 3.41081191291e-16, Final residual = 3.40421510876e-61, No Iterations 67
DILUPBiCGStab:  Solving for ILambda_107_0, Initial residual = 3.4103564236e-16, Final residual = 8.21066606117e-61, No Iterations 73
DILUPBiCGStab:  Solving for ILambda_108_0, Initial residual = 3.24981131152e-16, Final residual = 1.30548113529e-61, No Iterations 77
DILUPBiCGStab:  Solving for ILambda_109_0, Initial residual = 3.3719321608e-16, Final residual = 2.62740876476e-61, No Iterations 67
DILUPBiCGStab:  Solving for ILambda_110_0, Initial residual = 3.15618871208e-16, Final residual = 5.38816850991e-61, No Iterations 55
DILUPBiCGStab:  Solving for ILambda_111_0, Initial residual = 1.99662763875e-16, Final residual = 2.24012382654e-61, No Iterations 39
DILUPBiCGStab:  Solving for ILambda_112_0, Initial residual = 1.50970743676e-16, Final residual = 1.89938727369e-62, No Iterations 2
DILUPBiCGStab:  Solving for ILambda_113_0, Initial residual = 2.02853526011e-16, Final residual = 8.64177082641e-62, No Iterations 2
DILUPBiCGStab:  Solving for ILambda_114_0, Initial residual = 1.94086206495e-16, Final residual = 1.99307052481e-62, No Iterations 2
DILUPBiCGStab:  Solving for ILambda_115_0, Initial residual = 2.00325772762e-16, Final residual = 3.32605135418e-62, No Iterations 2
DILUPBiCGStab:  Solving for ILambda_116_0, Initial residual = 2.0051684883e-16, Final residual = 1.02351854853e-75, No Iterations 2
DILUPBiCGStab:  Solving for ILambda_117_0, Initial residual = 1.79328862572e-16, Final residual = 2.51174248003e-62, No Iterations 2
DILUPBiCGStab:  Solving for ILambda_118_0, Initial residual = 1.84466204183e-16, Final residual = 1.80693557379e-62, No Iterations 2
DILUPBiCGStab:  Solving for ILambda_119_0, Initial residual = 1.3398808801e-16, Final residual = 1.41678347422e-62, No Iterations 2
DILUPBiCGStab:  Solving for ILambda_120_0, Initial residual = 2.28199254426e-16, Final residual = 5.94207872557e-61, No Iterations 38
DILUPBiCGStab:  Solving for ILambda_121_0, Initial residual = 3.01900909712e-16, Final residual = 8.74686107975e-61, No Iterations 55
DILUPBiCGStab:  Solving for ILambda_122_0, Initial residual = 3.37912863704e-16, Final residual = 4.01082194813e-61, No Iterations 67
DILUPBiCGStab:  Solving for ILambda_123_0, Initial residual = 3.40484593766e-16, Final residual = 6.75882466591e-61, No Iterations 72
DILUPBiCGStab:  Solving for ILambda_124_0, Initial residual = 3.39433866596e-16, Final residual = 6.23505369373e-61, No Iterations 73
DILUPBiCGStab:  Solving for ILambda_125_0, Initial residual = 3.36722048076e-16, Final residual = 6.51807005055e-61, No Iterations 65
DILUPBiCGStab:  Solving for ILambda_126_0, Initial residual = 2.60482909405e-16, Final residual = 1.20680369794e-62, No Iterations 57
DILUPBiCGStab:  Solving for ILambda_127_0, Initial residual = 1.59609701884e-16, Final residual = 2.27088727982e-61, No Iterations 39
min/max(T) = 1000, 1000
PIMPLE: iteration 3
Radiation solver iter: 0
DILUPBiCGStab:  Solving for ILambda_0_0, Initial residual = 1.31644060115e-16, Final residual = 2.09869584589e-62, No Iterations 2
DILUPBiCGStab:  Solving for ILambda_1_0, Initial residual = 1.80899026017e-16, Final residual = 4.82161369044e-62, No Iterations 2
DILUPBiCGStab:  Solving for ILambda_2_0, Initial residual = 1.68623036618e-16, Final residual = 4.64213713865e-61, No Iterations 2
DILUPBiCGStab:  Solving for ILambda_3_0, Initial residual = 2.01607176377e-16, Final residual = 3.72980606268e-62, No Iterations 2
DILUPBiCGStab:  Solving for ILambda_4_0, Initial residual = 2.02733577658e-16, Final residual = 4.20780594004e-62, No Iterations 2
DILUPBiCGStab:  Solving for ILambda_5_0, Initial residual = 1.97286783745e-16, Final residual = 9.61156966521e-62, No Iterations 2
DILUPBiCGStab:  Solving for ILambda_6_0, Initial residual = 2.14972218633e-16, Final residual = 1.24134524636e-61, No Iterations 2
DILUPBiCGStab:  Solving for ILambda_7_0, Initial residual = 1.59584675465e-16, Final residual = 7.16552694502e-62, No Iterations 2
DILUPBiCGStab:  Solving for ILambda_8_0, Initial residual = 1.58953066448e-16, Final residual = 6.77345657972e-61, No Iterations 38
DILUPBiCGStab:  Solving for ILambda_9_0, Initial residual = 2.09375818574e-16, Final residual = 3.22711212355e-61, No Iterations 57
DILUPBiCGStab:  Solving for ILambda_10_0, Initial residual = 2.38080738196e-16, Final residual = 4.80768251737e-61, No Iterations 69
DILUPBiCGStab:  Solving for ILambda_11_0, Initial residual = 3.26030286203e-16, Final residual = 3.65360093492e-61, No Iterations 72
DILUPBiCGStab:  Solving for ILambda_12_0, Initial residual = 2.90196661377e-16, Final residual = 6.99727311062e-61, No Iterations 72
DILUPBiCGStab:  Solving for ILambda_13_0, Initial residual = 2.60488560531e-16, Final residual = 7.67684309589e-61, No Iterations 67
DILUPBiCGStab:  Solving for ILambda_14_0, Initial residual = 2.43363139558e-16, Final residual = 8.76028178857e-61, No Iterations 55
DILUPBiCGStab:  Solving for ILambda_15_0, Initial residual = 1.72119002088e-16, Final residual = 8.32658070391e-61, No Iterations 38
DILUPBiCGStab:  Solving for ILambda_16_0, Initial residual = 1.60252868093e-16, Final residual = 2.09167539357e-61, No Iterations 18
DILUPBiCGStab:  Solving for ILambda_17_0, Initial residual = 2.16713190572e-16, Final residual = 1.98262107886e-61, No Iterations 20
DILUPBiCGStab:  Solving for ILambda_18_0, Initial residual = 2.00426855698e-16, Final residual = 4.52229771626e-61, No Iterations 21
DILUPBiCGStab:  Solving for ILambda_19_0, Initial residual = 2.05536876448e-16, Final residual = 1.20535998559e-61, No Iterations 22
DILUPBiCGStab:  Solving for ILambda_20_0, Initial residual = 2.04940958758e-16, Final residual = 1.48712041493e-61, No Iterations 21
DILUPBiCGStab:  Solving for ILambda_21_0, Initial residual = 1.75108830551e-16, Final residual = 2.02384050652e-61, No Iterations 19
DILUPBiCGStab:  Solving for ILambda_22_0, Initial residual = 1.8653018263e-16, Final residual = 5.05730514423e-62, No Iterations 20
DILUPBiCGStab:  Solving for ILambda_23_0, Initial residual = 1.31183896936e-16, Final residual = 3.3069026433e-61, No Iterations 19
DILUPBiCGStab:  Solving for ILambda_24_0, Initial residual = 1.72273197118e-16, Final residual = 8.12579219195e-61, No Iterations 37
DILUPBiCGStab:  Solving for ILambda_25_0, Initial residual = 2.67183871051e-16, Final residual = 1.86232023247e-61, No Iterations 55
DILUPBiCGStab:  Solving for ILambda_26_0, Initial residual = 3.05554129468e-16, Final residual = 3.79775620932e-61, No Iterations 66
DILUPBiCGStab:  Solving for ILambda_27_0, Initial residual = 2.91700413461e-16, Final residual = 3.95100557196e-61, No Iterations 70
DILUPBiCGStab:  Solving for ILambda_28_0, Initial residual = 3.62098878932e-16, Final residual = 6.24038617124e-61, No Iterations 72
DILUPBiCGStab:  Solving for ILambda_29_0, Initial residual = 2.3933622311e-16, Final residual = 4.73069983096e-61, No Iterations 68
DILUPBiCGStab:  Solving for ILambda_30_0, Initial residual = 2.45169418127e-16, Final residual = 3.92112482957e-61, No Iterations 57
DILUPBiCGStab:  Solving for ILambda_31_0, Initial residual = 1.45579823684e-16, Final residual = 3.91667032367e-62, No Iterations 38
DILUPBiCGStab:  Solving for ILambda_32_0, Initial residual = 7.46723743984e-16, Final residual = 6.58607318051e-61, No Iterations 2
DILUPBiCGStab:  Solving for ILambda_33_0, Initial residual = 7.97852844466e-16, Final residual = 2.29748585007e-61, No Iterations 2
DILUPBiCGStab:  Solving for ILambda_34_0, Initial residual = 7.54160116924e-16, Final residual = 6.38552334697e-61, No Iterations 2
DILUPBiCGStab:  Solving for ILambda_35_0, Initial residual = 7.36024079033e-16, Final residual = 2.02193852128e-61, No Iterations 2
DILUPBiCGStab:  Solving for ILambda_36_0, Initial residual = 6.92195044615e-16, Final residual = 2.05163866546e-61, No Iterations 2
DILUPBiCGStab:  Solving for ILambda_37_0, Initial residual = 8.41501212787e-16, Final residual = 1.70439323803e-75, No Iterations 2
DILUPBiCGStab:  Solving for ILambda_38_0, Initial residual = 8.61633245645e-16, Final residual = 1.77227919115e-61, No Iterations 2
DILUPBiCGStab:  Solving for ILambda_39_0, Initial residual = 7.91109393144e-16, Final residual = 1.13809120772e-74, No Iterations 2
DILUPBiCGStab:  Solving for ILambda_40_0, Initial residual = 8.71814196644e-16, Final residual = 8.55736604555e-61, No Iterations 41
DILUPBiCGStab:  Solving for ILambda_41_0, Initial residual = 1.31479361637e-15, Final residual = 4.07082372485e-61, No Iterations 62
DILUPBiCGStab:  Solving for ILambda_42_0, Initial residual = 1.08661284496e-15, Final residual = 4.96725549823e-61, No Iterations 69
DILUPBiCGStab:  Solving for ILambda_43_0, Initial residual = 1.437131163e-15, Final residual = 2.22791107835e-61, No Iterations 76
DILUPBiCGStab:  Solving for ILambda_44_0, Initial residual = 1.26575891695e-15, Final residual = 7.91054551363e-61, No Iterations 75
DILUPBiCGStab:  Solving for ILambda_45_0, Initial residual = 1.28349597679e-15, Final residual = 7.37075775384e-61, No Iterations 69
DILUPBiCGStab:  Solving for ILambda_46_0, Initial residual = 1.19843411207e-15, Final residual = 7.87611124139e-61, No Iterations 57
DILUPBiCGStab:  Solving for ILambda_47_0, Initial residual = 8.17453246512e-16, Final residual = 3.75193479565e-61, No Iterations 41
DILUPBiCGStab:  Solving for ILambda_48_0, Initial residual = 7.87922922465e-16, Final residual = 5.23901094382e-62, No Iterations 23
DILUPBiCGStab:  Solving for ILambda_49_0, Initial residual = 8.43490069489e-16, Final residual = 3.59479977213e-61, No Iterations 25
DILUPBiCGStab:  Solving for ILambda_50_0, Initial residual = 8.33702657858e-16, Final residual = 3.14975704743e-62, No Iterations 24
DILUPBiCGStab:  Solving for ILambda_51_0, Initial residual = 7.54545838193e-16, Final residual = 2.63108960459e-61, No Iterations 24
DILUPBiCGStab:  Solving for ILambda_52_0, Initial residual = 7.41696025734e-16, Final residual = 3.15869215428e-61, No Iterations 23
DILUPBiCGStab:  Solving for ILambda_53_0, Initial residual = 7.57913399865e-16, Final residual = 5.29788268303e-61, No Iterations 23
DILUPBiCGStab:  Solving for ILambda_54_0, Initial residual = 8.06558383995e-16, Final residual = 2.55471740858e-61, No Iterations 23
DILUPBiCGStab:  Solving for ILambda_55_0, Initial residual = 7.6445001145e-16, Final residual = 1.23383746225e-61, No Iterations 24
DILUPBiCGStab:  Solving for ILambda_56_0, Initial residual = 8.72252690089e-16, Final residual = 3.081663165e-61, No Iterations 42
DILUPBiCGStab:  Solving for ILambda_57_0, Initial residual = 1.04566342078e-15, Final residual = 8.41415039338e-61, No Iterations 57
DILUPBiCGStab:  Solving for ILambda_58_0, Initial residual = 1.12272176039e-15, Final residual = 9.20089438532e-61, No Iterations 65
DILUPBiCGStab:  Solving for ILambda_59_0, Initial residual = 1.43039272546e-15, Final residual = 5.11734042872e-61, No Iterations 74
DILUPBiCGStab:  Solving for ILambda_60_0, Initial residual = 1.40032652163e-15, Final residual = 6.52738357852e-61, No Iterations 76
DILUPBiCGStab:  Solving for ILambda_61_0, Initial residual = 1.22816864149e-15, Final residual = 3.28212619468e-61, No Iterations 73
DILUPBiCGStab:  Solving for ILambda_62_0, Initial residual = 1.04355559299e-15, Final residual = 2.86679619152e-61, No Iterations 59
DILUPBiCGStab:  Solving for ILambda_63_0, Initial residual = 8.58241039961e-16, Final residual = 6.6597001038e-61, No Iterations 41
DILUPBiCGStab:  Solving for ILambda_64_0, Initial residual = 7.66062749552e-16, Final residual = 1.31479882804e-61, No Iterations 21
DILUPBiCGStab:  Solving for ILambda_65_0, Initial residual = 7.87376420268e-16, Final residual = 7.5827214512e-62, No Iterations 24
[...]
DILUPBiCGStab:  Solving for ILambda_108_0, Initial residual = 3.01261355126e-16, Final residual = 8.52012015766e-61, No Iterations 75
DILUPBiCGStab:  Solving for ILambda_109_0, Initial residual = 2.51321753092e-16, Final residual = 9.63295659968e-61, No Iterations 67
DILUPBiCGStab:  Solving for ILambda_110_0, Initial residual = 2.37585733485e-16, Final residual = 4.77014562644e-61, No Iterations 55
DILUPBiCGStab:  Solving for ILambda_111_0, Initial residual = 1.84664545985e-16, Final residual = 7.31361774155e-61, No Iterations 39
DILUPBiCGStab:  Solving for ILambda_112_0, Initial residual = 1.47593281909e-16, Final residual = 1.84517719071e-62, No Iterations 2
DILUPBiCGStab:  Solving for ILambda_113_0, Initial residual = 1.99682776512e-16, Final residual = 5.55546779764e-62, No Iterations 2
DILUPBiCGStab:  Solving for ILambda_114_0, Initial residual = 1.9278504518e-16, Final residual = 1.8957941849e-61, No Iterations 2
DILUPBiCGStab:  Solving for ILambda_115_0, Initial residual = 1.99283373568e-16, Final residual = 1.86361033902e-62, No Iterations 2
DILUPBiCGStab:  Solving for ILambda_116_0, Initial residual = 2.0094807654e-16, Final residual = 6.20734892089e-62, No Iterations 2
DILUPBiCGStab:  Solving for ILambda_117_0, Initial residual = 1.84838838632e-16, Final residual = 3.9340456486e-62, No Iterations 2
DILUPBiCGStab:  Solving for ILambda_118_0, Initial residual = 1.84616320204e-16, Final residual = 3.3914643002e-62, No Iterations 2
DILUPBiCGStab:  Solving for ILambda_119_0, Initial residual = 1.35180220818e-16, Final residual = 2.39333980694e-62, No Iterations 2
DILUPBiCGStab:  Solving for ILambda_120_0, Initial residual = 1.528352331e-16, Final residual = 2.21847588504e-61, No Iterations 37
DILUPBiCGStab:  Solving for ILambda_121_0, Initial residual = 2.27681560227e-16, Final residual = 9.52372197322e-61, No Iterations 56
DILUPBiCGStab:  Solving for ILambda_122_0, Initial residual = 2.6979800581e-16, Final residual = 6.74915502423e-61, No Iterations 67
DILUPBiCGStab:  Solving for ILambda_123_0, Initial residual = 2.97591054519e-16, Final residual = 6.19604894313e-61, No Iterations 74
DILUPBiCGStab:  Solving for ILambda_124_0, Initial residual = 2.96799769304e-16, Final residual = 6.95482410706e-61, No Iterations 72
DILUPBiCGStab:  Solving for ILambda_125_0, Initial residual = 2.26513306616e-16, Final residual = 4.50194394962e-61, No Iterations 71
DILUPBiCGStab:  Solving for ILambda_126_0, Initial residual = 2.53044709409e-16, Final residual = 3.63726163986e-61, No Iterations 57
DILUPBiCGStab:  Solving for ILambda_127_0, Initial residual = 1.37204173992e-16, Final residual = 1.87044736818e-61, No Iterations 37
min/max(T) = 1000, 1000
PIMPLE: iteration 10
Radiation solver iter: 0
DILUPBiCGStab:  Solving for ILambda_0_0, Initial residual = 1.34375253927e-16, Final residual = 2.17807495186e-62, No Iterations 2
DILUPBiCGStab:  Solving for ILambda_1_0, Initial residual = 1.83571669057e-16, Final residual = 3.28622103169e-62, No Iterations 2
DILUPBiCGStab:  Solving for ILambda_2_0, Initial residual = 1.80867838595e-16, Final residual = 7.11988692682e-62, No Iterations 2
DILUPBiCGStab:  Solving for ILambda_3_0, Initial residual = 2.03988467716e-16, Final residual = 3.33799521655e-62, No Iterations 2
DILUPBiCGStab:  Solving for ILambda_4_0, Initial residual = 2.04847481473e-16, Final residual = 6.45643329454e-62, No Iterations 2
DILUPBiCGStab:  Solving for ILambda_5_0, Initial residual = 2.04241153813e-16, Final residual = 1.94454898971e-61, No Iterations 2
DILUPBiCGStab:  Solving for ILambda_6_0, Initial residual = 2.14983605866e-16, Final residual = 1.23986713548e-61, No Iterations 2
DILUPBiCGStab:  Solving for ILambda_7_0, Initial residual = 1.59440805426e-16, Final residual = 1.408476552e-62, No Iterations 2
DILUPBiCGStab:  Solving for ILambda_8_0, Initial residual = 1.72892866537e-16, Final residual = 5.86521722356e-61, No Iterations 37
DILUPBiCGStab:  Solving for ILambda_9_0, Initial residual = 2.15709924368e-16, Final residual = 7.5761303151e-61, No Iterations 57
DILUPBiCGStab:  Solving for ILambda_10_0, Initial residual = 2.3269449207e-16, Final residual = 6.42766807381e-61, No Iterations 66
DILUPBiCGStab:  Solving for ILambda_11_0, Initial residual = 2.81565266331e-16, Final residual = 3.32374071302e-61, No Iterations 76
DILUPBiCGStab:  Solving for ILambda_12_0, Initial residual = 3.04862312582e-16, Final residual = 9.00527284499e-61, No Iterations 68
DILUPBiCGStab:  Solving for ILambda_13_0, Initial residual = 2.81634524501e-16, Final residual = 5.8755920545e-61, No Iterations 68
DILUPBiCGStab:  Solving for ILambda_14_0, Initial residual = 2.40039639678e-16, Final residual = 4.23444081657e-61, No Iterations 56
DILUPBiCGStab:  Solving for ILambda_15_0, Initial residual = 1.63624211346e-16, Final residual = 5.1236528827e-61, No Iterations 38
DILUPBiCGStab:  Solving for ILambda_16_0, Initial residual = 1.58404864663e-16, Final residual = 2.56855194852e-61, No Iterations 19
DILUPBiCGStab:  Solving for ILambda_17_0, Initial residual = 2.09128401198e-16, Final residual = 2.5817376123e-61, No Iterations 19
DILUPBiCGStab:  Solving for ILambda_18_0, Initial residual = 1.99867436639e-16, Final residual = 1.52743215063e-61, No Iterations 20
DILUPBiCGStab:  Solving for ILambda_19_0, Initial residual = 2.03521208761e-16, Final residual = 1.11798280098e-61, No Iterations 19
DILUPBiCGStab:  Solving for ILambda_20_0, Initial residual = 2.03147767009e-16, Final residual = 1.81294576795e-61, No Iterations 21
DILUPBiCGStab:  Solving for ILambda_21_0, Initial residual = 1.74685590899e-16, Final residual = 3.27690326581e-61, No Iterations 21
DILUPBiCGStab:  Solving for ILambda_22_0, Initial residual = 1.8773765421e-16, Final residual = 5.48935560036e-61, No Iterations 21
DILUPBiCGStab:  Solving for ILambda_23_0, Initial residual = 1.30351269267e-16, Final residual = 9.25906331037e-62, No Iterations 19
DILUPBiCGStab:  Solving for ILambda_24_0, Initial residual = 1.72063298124e-16, Final residual = 1.97061227937e-62, No Iterations 39
DILUPBiCGStab:  Solving for ILambda_25_0, Initial residual = 2.53009697916e-16, Final residual = 6.29359710353e-61, No Iterations 57
DILUPBiCGStab:  Solving for ILambda_26_0, Initial residual = 2.85600298307e-16, Final residual = 8.86914590801e-61, No Iterations 69
DILUPBiCGStab:  Solving for ILambda_27_0, Initial residual = 2.48003394462e-16, Final residual = 4.48687849256e-61, No Iterations 71
DILUPBiCGStab:  Solving for ILambda_28_0, Initial residual = 2.8705837399e-16, Final residual = 2.8152768426e-61, No Iterations 74
DILUPBiCGStab:  Solving for ILambda_29_0, Initial residual = 2.50162337333e-16, Final residual = 9.53930150915e-61, No Iterations 67
DILUPBiCGStab:  Solving for ILambda_30_0, Initial residual = 2.16305544631e-16, Final residual = 7.40061370086e-61, No Iterations 55
DILUPBiCGStab:  Solving for ILambda_31_0, Initial residual = 1.32430374039e-16, Final residual = 1.11378353803e-61, No Iterations 38
DILUPBiCGStab:  Solving for ILambda_32_0, Initial residual = 7.64532611378e-16, Final residual = 5.30101674881e-75, No Iterations 2
DILUPBiCGStab:  Solving for ILambda_33_0, Initial residual = 8.12048134969e-16, Final residual = 2.16623684033e-61, No Iterations 2
DILUPBiCGStab:  Solving for ILambda_34_0, Initial residual = 8.13007976725e-16, Final residual = 1.03632918557e-61, No Iterations 2
DILUPBiCGStab:  Solving for ILambda_35_0, Initial residual = 8.20652973969e-16, Final residual = 2.76159649565e-61, No Iterations 2
DILUPBiCGStab:  Solving for ILambda_36_0, Initial residual = 7.52715977854e-16, Final residual = 1.10886654192e-61, No Iterations 2
DILUPBiCGStab:  Solving for ILambda_37_0, Initial residual = 8.62527908239e-16, Final residual = 4.12468535763e-75, No Iterations 2
DILUPBiCGStab:  Solving for ILambda_38_0, Initial residual = 8.57059062185e-16, Final residual = 2.38491817354e-61, No Iterations 2
DILUPBiCGStab:  Solving for ILambda_39_0, Initial residual = 7.75573893315e-16, Final residual = 8.06034466096e-61, No Iterations 2
DILUPBiCGStab:  Solving for ILambda_40_0, Initial residual = 8.05456881663e-16, Final residual = 6.42441363185e-61, No Iterations 40
DILUPBiCGStab:  Solving for ILambda_41_0, Initial residual = 9.12793533548e-16, Final residual = 2.14242722647e-61, No Iterations 60
DILUPBiCGStab:  Solving for ILambda_42_0, Initial residual = 1.29417711624e-15, Final residual = 7.8739077167e-61, No Iterations 68
DILUPBiCGStab:  Solving for ILambda_43_0, Initial residual = 1.50154652988e-15, Final residual = 2.95121103014e-61, No Iterations 77
DILUPBiCGStab:  Solving for ILambda_44_0, Initial residual = 1.14657622868e-15, Final residual = 3.26902384238e-61, No Iterations 72
DILUPBiCGStab:  Solving for ILambda_45_0, Initial residual = 1.22326031923e-15, Final residual = 4.4424536557e-61, No Iterations 67
DILUPBiCGStab:  Solving for ILambda_46_0, Initial residual = 1.00803082561e-15, Final residual = 5.97981935694e-61, No Iterations 57
DILUPBiCGStab:  Solving for ILambda_47_0, Initial residual = 7.68342830484e-16, Final residual = 4.33192345397e-61, No Iterations 40
DILUPBiCGStab:  Solving for ILambda_48_0, Initial residual = 7.54264216628e-16, Final residual = 2.04945973682e-61, No Iterations 23
DILUPBiCGStab:  Solving for ILambda_49_0, Initial residual = 8.52067885055e-16, Final residual = 6.99804475782e-61, No Iterations 22
DILUPBiCGStab:  Solving for ILambda_50_0, Initial residual = 8.52230195613e-16, Final residual = 3.81483372368e-61, No Iterations 24
DILUPBiCGStab:  Solving for ILambda_51_0, Initial residual = 7.43160644827e-16, Final residual = 1.8179218201e-61, No Iterations 26
DILUPBiCGStab:  Solving for ILambda_52_0, Initial residual = 7.91130213084e-16, Final residual = 5.69465764775e-62, No Iterations 23
DILUPBiCGStab:  Solving for ILambda_53_0, Initial residual = 8.23738914076e-16, Final residual = 8.85690856356e-62, No Iterations 24
DILUPBiCGStab:  Solving for ILambda_54_0, Initial residual = 8.13532894169e-16, Final residual = 2.19903506562e-61, No Iterations 23
DILUPBiCGStab:  Solving for ILambda_55_0, Initial residual = 7.62608254002e-16, Final residual = 4.67022284138e-62, No Iterations 23
DILUPBiCGStab:  Solving for ILambda_56_0, Initial residual = 8.82237253812e-16, Final residual = 9.46486662346e-62, No Iterations 40
DILUPBiCGStab:  Solving for ILambda_57_0, Initial residual = 1.17611946959e-15, Final residual = 3.92958236192e-61, No Iterations 58
DILUPBiCGStab:  Solving for ILambda_58_0, Initial residual = 1.18571525279e-15, Final residual = 8.35424028347e-61, No Iterations 71
DILUPBiCGStab:  Solving for ILambda_59_0, Initial residual = 1.28140998869e-15, Final residual = 8.9941709184e-61, No Iterations 75
DILUPBiCGStab:  Solving for ILambda_60_0, Initial residual = 1.09751008689e-15, Final residual = 6.82183983394e-61, No Iterations 78
DILUPBiCGStab:  Solving for ILambda_61_0, Initial residual = 1.32758938196e-15, Final residual = 3.08455534182e-61, No Iterations 69
DILUPBiCGStab:  Solving for ILambda_62_0, Initial residual = 1.09093531958e-15, Final residual = 4.20874916013e-61, No Iterations 57
DILUPBiCGStab:  Solving for ILambda_63_0, Initial residual = 7.79078186761e-16, Final residual = 4.88053548129e-61, No Iterations 40
DILUPBiCGStab:  Solving for ILambda_64_0, Initial residual = 7.41557764333e-16, Final residual = 1.73938043893e-61, No Iterations 21
DILUPBiCGStab:  Solving for ILambda_65_0, Initial residual = 7.74561279384e-16, Final residual = 9.5266947905e-61, No Iterations 22
DILUPBiCGStab:  Solving for ILambda_66_0, Initial residual = 8.76749797281e-16, Final residual = 1.46957463133e-61, No Iterations 23
DILUPBiCGStab:  Solving for ILambda_67_0, Initial residual = 7.85173840502e-16, Final residual = 3.54849315663e-61, No Iterations 24
DILUPBiCGStab:  Solving for ILambda_68_0, Initial residual = 8.58024597558e-16, Final residual = 1.2846078196e-61, No Iterations 23
DILUPBiCGStab:  Solving for ILambda_69_0, Initial residual = 9.36441926922e-16, Final residual = 3.80747933959e-61, No Iterations 24
DILUPBiCGStab:  Solving for ILambda_70_0, Initial residual = 9.04192348662e-16, Final residual = 1.21412368923e-61, No Iterations 21
DILUPBiCGStab:  Solving for ILambda_71_0, Initial residual = 8.06849523248e-16, Final residual = 1.81693010726e-62, No Iterations 22
DILUPBiCGStab:  Solving for ILambda_72_0, Initial residual = 9.16245819634e-16, Final residual = 4.11072294615e-61, No Iterations 41
DILUPBiCGStab:  Solving for ILambda_73_0, Initial residual = 9.68140669037e-16, Final residual = 6.05801603222e-61, No Iterations 57
DILUPBiCGStab:  Solving for ILambda_74_0, Initial residual = 9.34259997137e-16, Final residual = 8.03210950776e-61, No Iterations 67
DILUPBiCGStab:  Solving for ILambda_75_0, Initial residual = 1.09863291905e-15, Final residual = 5.29988312014e-61, No Iterations 72
DILUPBiCGStab:  Solving for ILambda_76_0, Initial residual = 1.15255206154e-15, Final residual = 3.81755571362e-61, No Iterations 75
DILUPBiCGStab:  Solving for ILambda_77_0, Initial residual = 1.19489225775e-15, Final residual = 7.69286690764e-61, No Iterations 69
DILUPBiCGStab:  Solving for ILambda_78_0, Initial residual = 9.89460798184e-16, Final residual = 1.29400600475e-61, No Iterations 58
DILUPBiCGStab:  Solving for ILambda_79_0, Initial residual = 8.50546839675e-16, Final residual = 4.76717272488e-64, No Iterations 41
DILUPBiCGStab:  Solving for ILambda_80_0, Initial residual = 7.86272113618e-16, Final residual = 1.37304380547e-75, No Iterations 2
DILUPBiCGStab:  Solving for ILambda_81_0, Initial residual = 8.81746158151e-16, Final residual = 5.37894625454e-61, No Iterations 2
DILUPBiCGStab:  Solving for ILambda_82_0, Initial residual = 9.12898483047e-16, Final residual = 2.08101981075e-61, No Iterations 2
DILUPBiCGStab:  Solving for ILambda_83_0, Initial residual = 8.80903417939e-16, Final residual = 2.96155197148e-61, No Iterations 2
DILUPBiCGStab:  Solving for ILambda_84_0, Initial residual = 8.69618840124e-16, Final residual = 4.31216387833e-61, No Iterations 2
DILUPBiCGStab:  Solving for ILambda_85_0, Initial residual = 7.95957040153e-16, Final residual = 7.46256552998e-61, No Iterations 2
DILUPBiCGStab:  Solving for ILambda_86_0, Initial residual = 7.96000379621e-16, Final residual = 4.04681053332e-75, No Iterations 2
DILUPBiCGStab:  Solving for ILambda_87_0, Initial residual = 7.36217407056e-16, Final residual = 5.7311083276e-61, No Iterations 2
DILUPBiCGStab:  Solving for ILambda_88_0, Initial residual = 8.44254203804e-16, Final residual = 4.71088658034e-61, No Iterations 41
DILUPBiCGStab:  Solving for ILambda_89_0, Initial residual = 1.02068731005e-15, Final residual = 6.34496332707e-61, No Iterations 57
DILUPBiCGStab:  Solving for ILambda_90_0, Initial residual = 1.22049313666e-15, Final residual = 7.65086112356e-61, No Iterations 71
DILUPBiCGStab:  Solving for ILambda_91_0, Initial residual = 1.27993381241e-15, Final residual = 1.32326085475e-61, No Iterations 76
DILUPBiCGStab:  Solving for ILambda_92_0, Initial residual = 1.44816904576e-15, Final residual = 3.88296807235e-61, No Iterations 79
DILUPBiCGStab:  Solving for ILambda_93_0, Initial residual = 1.22062256021e-15, Final residual = 7.29664795337e-61, No Iterations 67
DILUPBiCGStab:  Solving for ILambda_94_0, Initial residual = 1.18134705927e-15, Final residual = 5.70220643601e-61, No Iterations 58
DILUPBiCGStab:  Solving for ILambda_95_0, Initial residual = 7.93008256716e-16, Final residual = 8.42291172408e-63, No Iterations 42
DILUPBiCGStab:  Solving for ILambda_96_0, Initial residual = 1.34612558762e-16, Final residual = 6.01455545841e-61, No Iterations 20
DILUPBiCGStab:  Solving for ILambda_97_0, Initial residual = 1.84261871336e-16, Final residual = 6.05697988214e-61, No Iterations 19
DILUPBiCGStab:  Solving for ILambda_98_0, Initial residual = 1.83007406175e-16, Final residual = 2.20857692097e-61, No Iterations 18
DILUPBiCGStab:  Solving for ILambda_99_0, Initial residual = 1.96764415682e-16, Final residual = 3.79852374976e-61, No Iterations 21
DILUPBiCGStab:  Solving for ILambda_100_0, Initial residual = 2.00158873319e-16, Final residual = 1.38672852505e-61, No Iterations 19
DILUPBiCGStab:  Solving for ILambda_101_0, Initial residual = 1.96682920486e-16, Final residual = 1.4347779638e-61, No Iterations 20
DILUPBiCGStab:  Solving for ILambda_102_0, Initial residual = 2.02580657319e-16, Final residual = 1.16950317712e-62, No Iterations 21
DILUPBiCGStab:  Solving for ILambda_103_0, Initial residual = 1.39607390003e-16, Final residual = 2.43088033329e-62, No Iterations 20
DILUPBiCGStab:  Solving for ILambda_104_0, Initial residual = 1.38972849199e-16, Final residual = 4.91896281493e-62, No Iterations 39
DILUPBiCGStab:  Solving for ILambda_105_0, Initial residual = 2.43347673317e-16, Final residual = 6.06139735242e-61, No Iterations 55
DILUPBiCGStab:  Solving for ILambda_106_0, Initial residual = 2.55172422369e-16, Final residual = 2.63219031533e-61, No Iterations 70
DILUPBiCGStab:  Solving for ILambda_107_0, Initial residual = 2.39037563186e-16, Final residual = 3.54167236147e-61, No Iterations 70
DILUPBiCGStab:  Solving for ILambda_108_0, Initial residual = 2.50060447093e-16, Final residual = 2.27275764671e-61, No Iterations 72
DILUPBiCGStab:  Solving for ILambda_109_0, Initial residual = 2.79728267728e-16, Final residual = 5.94364508027e-61, No Iterations 67
DILUPBiCGStab:  Solving for ILambda_110_0, Initial residual = 2.3751575299e-16, Final residual = 8.3429445389e-61, No Iterations 56
DILUPBiCGStab:  Solving for ILambda_111_0, Initial residual = 1.49860998347e-16, Final residual = 2.35803690432e-61, No Iterations 39
DILUPBiCGStab:  Solving for ILambda_112_0, Initial residual = 1.4735007101e-16, Final residual = 2.90398070871e-62, No Iterations 2
DILUPBiCGStab:  Solving for ILambda_113_0, Initial residual = 1.98999245112e-16, Final residual = 5.10907417881e-62, No Iterations 2
DILUPBiCGStab:  Solving for ILambda_114_0, Initial residual = 1.94687265436e-16, Final residual = 4.66887227379e-62, No Iterations 2
DILUPBiCGStab:  Solving for ILambda_115_0, Initial residual = 1.96390634012e-16, Final residual = 3.49480056754e-62, No Iterations 2
DILUPBiCGStab:  Solving for ILambda_116_0, Initial residual = 2.02585203714e-16, Final residual = 1.17375180891e-61, No Iterations 2
DILUPBiCGStab:  Solving for ILambda_117_0, Initial residual = 1.82500631822e-16, Final residual = 1.3520964174e-62, No Iterations 2
DILUPBiCGStab:  Solving for ILambda_118_0, Initial residual = 1.86203224582e-16, Final residual = 1.66499484219e-62, No Iterations 2
DILUPBiCGStab:  Solving for ILambda_119_0, Initial residual = 1.34214685446e-16, Final residual = 1.93243970034e-62, No Iterations 2
DILUPBiCGStab:  Solving for ILambda_120_0, Initial residual = 1.53235995713e-16, Final residual = 7.38697517757e-62, No Iterations 38
DILUPBiCGStab:  Solving for ILambda_121_0, Initial residual = 2.51631375353e-16, Final residual = 4.13400151982e-61, No Iterations 56
DILUPBiCGStab:  Solving for ILambda_122_0, Initial residual = 2.52116437482e-16, Final residual = 2.44684095443e-61, No Iterations 69
DILUPBiCGStab:  Solving for ILambda_123_0, Initial residual = 2.76980545432e-16, Final residual = 6.75178702124e-61, No Iterations 74
DILUPBiCGStab:  Solving for ILambda_124_0, Initial residual = 2.99399202634e-16, Final residual = 9.13317351269e-61, No Iterations 72
DILUPBiCGStab:  Solving for ILambda_125_0, Initial residual = 2.60474241511e-16, Final residual = 4.41524563524e-61, No Iterations 67
DILUPBiCGStab:  Solving for ILambda_126_0, Initial residual = 2.57069118966e-16, Final residual = 9.97594767486e-61, No Iterations 57
DILUPBiCGStab:  Solving for ILambda_127_0, Initial residual = 1.39227404841e-16, Final residual = 5.43593622971e-61, No Iterations 39
min/max(T) = 1000, 1000
ExecutionTime = 298.95 s  ClockTime = 299 s

writeObjects writeObjects1.writeObjects write:
    writing object a
    writing object qem
End

