/*---------------------------------------------------------------------------*\
| =========                 |                                                 |
| \\      /  F ield         | OpenFOAM: The Open Source CFD Toolbox           |
|  \\    /   O peration     | Version:  2306                                  |
|   \\  /    A nd           | Website:  www.openfoam.com                      |
|    \\/     M anipulation  |                                                 |
\*---------------------------------------------------------------------------*/
Build  : _fbf00d6b-20230626 OPENFOAM=2306 version=2306
Arch   : "LSB;label=32;scalar=64"
Exec   : fireRADFoam_MaCFP
Date   : Mar 13 2024
Time   : 10:14:02
Host   : pop-os
PID    : 201277
I/O    : uncollated
Case   : /home/rafay/Desktop/Study/Radiative_Heat_Transfer/Local_copy_RHT2324/01_Projects/02_Rafay/Case_1_q1D_SolidAngle/new_case3/th_6-ph_12/tau_1/res_8
nProcs : 1
trapFpe: Floating point exception trapping enabled (FOAM_SIGFPE).
fileModificationChecking : Monitoring run-time modified files using timeStampMaster (fileModificationSkew 5, maxFileModificationPolls 20)
allowSystemOperations : Allowing user-supplied system call operations

// * * * * * * * * * * * * * * * * * * * * * * * * * * * * * * * * * * * * * //
Create time

Create mesh for time = 0


PIMPLE: no residual control data found. Calculations will employ 10 corrector loops

Reading thermophysical properties

Selecting thermodynamics package 
{
    type            hePsiThermo;
    mixture         singleStepReactingMixture;
    transport       sutherland;
    thermo          janaf;
    energy          sensibleEnthalpy;
    equationOfState perfectGas;
    specie          specie;
}

Selecting chemistryReader foamChemistryReader
    elements not defined in "/home/rafay/Desktop/Study/Radiative_Heat_Transfer/Local_copy_RHT2324/01_Projects/02_Rafay/Case_1_q1D_SolidAngle/new_case3/th_6-ph_12/tau_1/res_8/constant/reactions"
Fuel heat of combustion :47168962.4726
stoichiometric air-fuel ratio :14.6914056505
stoichiometric oxygen-fuel ratio :3.42181919285
Maximum products mass concentrations:
    H2O: 0.0818486943001
    CO2: 0.199950099979
    N2: 0.718201205721
Creating component thermo properties:
    multi-component carrier - 6 species
    no liquid components
    no solid components
Creating field rho


Reading field U

Reading/calculating face flux field phi

Selecting radiationModel fvDOM
Selecting absorptionEmissionModel constantAbsorptionEmission
Selecting scatterModel none
Selecting sootModel none
fvDOM : Allocated 288 rays with average orientation:
	I0 : dAve : 	(0.000387488209079 0.00591192763451 0.0163624617374) : omega : 	0.0175372336349 : d : 	(0.0169275754541 0.25826489366 0.965925826289)
	I1 : dAve : 	(0.00115583459655 0.00581077291359 0.0163624617374) : omega : 	0.0175372336349 : d : 	(0.050493090853 0.253845909725 0.965925826289)
	I2 : dAve : 	(0.00190440433361 0.00561019425706 0.0163624617374) : omega : 	0.0175372336349 : d : 	(0.083194655468 0.245083551895 0.965925826289)
	I3 : dAve : 	(0.00262038918453 0.00531362362136 0.0163624617374) : omega : 	0.0175372336349 : d : 	(0.114472736462 0.232127746542 0.965925826289)
	I4 : dAve : 	(0.00329153844998 0.00492613541228 0.0163624617374) : omega : 	0.0175372336349 : d : 	(0.143792157198 0.215200171088 0.965925826289)
	I5 : dAve : 	(0.00390636857998 0.00445435966052 0.0163624617374) : omega : 	0.0175372336349 : d : 	(0.170651254257 0.194590461042 0.965925826289)
	I6 : dAve : 	(0.00445435966052 0.00390636857998 0.0163624617374) : omega : 	0.0175372336349 : d : 	(0.194590461042 0.170651254257 0.965925826289)
	I7 : dAve : 	(0.00492613541228 0.00329153844998 0.0163624617374) : omega : 	0.0175372336349 : d : 	(0.215200171088 0.143792157198 0.965925826289)
	I8 : dAve : 	(0.00531362362136 0.00262038918453 0.0163624617374) : omega : 	0.0175372336349 : d : 	(0.232127746542 0.114472736462 0.965925826289)
	I9 : dAve : 	(0.00561019425706 0.00190440433361 0.0163624617374) : omega : 	0.0175372336349 : d : 	(0.245083551895 0.083194655468 0.965925826289)
	I10 : dAve : 	(0.00581077291359 0.00115583459655 0.0163624617374) : omega : 	0.0175372336349 : d : 	(0.253845909725 0.050493090853 0.965925826289)
	I11 : dAve : 	(0.00591192763451 0.000387488209079 0.0163624617374) : omega : 	0.0175372336349 : d : 	(0.25826489366 0.0169275754541 0.965925826289)
	I12 : dAve : 	(0.00591192763451 -0.000387488209079 0.0163624617374) : omega : 	0.0175372336349 : d : 	(0.25826489366 -0.0169275754541 0.965925826289)
	I13 : dAve : 	(0.00581077291359 -0.00115583459655 0.0163624617374) : omega : 	0.0175372336349 : d : 	(0.253845909725 -0.050493090853 0.965925826289)
	I14 : dAve : 	(0.00561019425706 -0.00190440433361 0.0163624617374) : omega : 	0.0175372336349 : d : 	(0.245083551895 -0.083194655468 0.965925826289)
	I15 : dAve : 	(0.00531362362136 -0.00262038918453 0.0163624617374) : omega : 	0.0175372336349 : d : 	(0.232127746542 -0.114472736462 0.965925826289)
	I16 : dAve : 	(0.00492613541228 -0.00329153844998 0.0163624617374) : omega : 	0.0175372336349 : d : 	(0.215200171088 -0.143792157198 0.965925826289)
	I17 : dAve : 	(0.00445435966052 -0.00390636857998 0.0163624617374) : omega : 	0.0175372336349 : d : 	(0.194590461042 -0.170651254257 0.965925826289)
	I18 : dAve : 	(0.00390636857998 -0.00445435966052 0.0163624617374) : omega : 	0.0175372336349 : d : 	(0.170651254257 -0.194590461042 0.965925826289)
	I19 : dAve : 	(0.00329153844998 -0.00492613541228 0.0163624617374) : omega : 	0.0175372336349 : d : 	(0.143792157198 -0.215200171088 0.965925826289)
	I20 : dAve : 	(0.00262038918453 -0.00531362362136 0.0163624617374) : omega : 	0.0175372336349 : d : 	(0.114472736462 -0.232127746542 0.965925826289)
	I21 : dAve : 	(0.00190440433361 -0.00561019425706 0.0163624617374) : omega : 	0.0175372336349 : d : 	(0.083194655468 -0.245083551895 0.965925826289)
	I22 : dAve : 	(0.00115583459655 -0.00581077291359 0.0163624617374) : omega : 	0.0175372336349 : d : 	(0.050493090853 -0.253845909725 0.965925826289)
	I23 : dAve : 	(0.000387488209079 -0.00591192763451 0.0163624617374) : omega : 	0.0175372336349 : d : 	(0.0169275754541 -0.25826489366 0.965925826289)
	I24 : dAve : 	(-0.000387488209079 -0.00591192763451 0.0163624617374) : omega : 	0.0175372336349 : d : 	(-0.0169275754541 -0.25826489366 0.965925826289)
	I25 : dAve : 	(-0.00115583459655 -0.00581077291359 0.0163624617374) : omega : 	0.0175372336349 : d : 	(-0.050493090853 -0.253845909725 0.965925826289)
	I26 : dAve : 	(-0.00190440433361 -0.00561019425706 0.0163624617374) : omega : 	0.0175372336349 : d : 	(-0.083194655468 -0.245083551895 0.965925826289)
	I27 : dAve : 	(-0.00262038918453 -0.00531362362136 0.0163624617374) : omega : 	0.0175372336349 : d : 	(-0.114472736462 -0.232127746542 0.965925826289)
	I28 : dAve : 	(-0.00329153844998 -0.00492613541228 0.0163624617374) : omega : 	0.0175372336349 : d : 	(-0.143792157198 -0.215200171088 0.965925826289)
	I29 : dAve : 	(-0.00390636857998 -0.00445435966052 0.0163624617374) : omega : 	0.0175372336349 : d : 	(-0.170651254257 -0.194590461042 0.965925826289)
	I30 : dAve : 	(-0.00445435966052 -0.00390636857998 0.0163624617374) : omega : 	0.0175372336349 : d : 	(-0.194590461042 -0.170651254257 0.965925826289)
	I31 : dAve : 	(-0.00492613541228 -0.00329153844998 0.0163624617374) : omega : 	0.0175372336349 : d : 	(-0.215200171088 -0.143792157198 0.965925826289)
	I32 : dAve : 	(-0.00531362362136 -0.00262038918453 0.0163624617374) : omega : 	0.0175372336349 : d : 	(-0.232127746542 -0.114472736462 0.965925826289)
	I33 : dAve : 	(-0.00561019425706 -0.00190440433361 0.0163624617374) : omega : 	0.0175372336349 : d : 	(-0.245083551895 -0.083194655468 0.965925826289)
	I34 : dAve : 	(-0.00581077291359 -0.00115583459655 0.0163624617374) : omega : 	0.0175372336349 : d : 	(-0.253845909725 -0.050493090853 0.965925826289)
	I35 : dAve : 	(-0.00591192763451 -0.000387488209079 0.0163624617374) : omega : 	0.0175372336349 : d : 	(-0.25826489366 -0.0169275754541 0.965925826289)
	I36 : dAve : 	(-0.00591192763451 0.000387488209079 0.0163624617374) : omega : 	0.0175372336349 : d : 	(-0.25826489366 0.0169275754541 0.965925826289)
	I37 : dAve : 	(-0.00581077291359 0.00115583459655 0.0163624617374) : omega : 	0.0175372336349 : d : 	(-0.253845909725 0.050493090853 0.965925826289)
	I38 : dAve : 	(-0.00561019425706 0.00190440433361 0.0163624617374) : omega : 	0.0175372336349 : d : 	(-0.245083551895 0.083194655468 0.965925826289)
	I39 : dAve : 	(-0.00531362362136 0.00262038918453 0.0163624617374) : omega : 	0.0175372336349 : d : 	(-0.232127746542 0.114472736462 0.965925826289)
	I40 : dAve : 	(-0.00492613541228 0.00329153844998 0.0163624617374) : omega : 	0.0175372336349 : d : 	(-0.215200171088 0.143792157198 0.965925826289)
	I41 : dAve : 	(-0.00445435966052 0.00390636857998 0.0163624617374) : omega : 	0.0175372336349 : d : 	(-0.194590461042 0.170651254257 0.965925826289)
	I42 : dAve : 	(-0.00390636857998 0.00445435966052 0.0163624617374) : omega : 	0.0175372336349 : d : 	(-0.170651254257 0.194590461042 0.965925826289)
	I43 : dAve : 	(-0.00329153844998 0.00492613541228 0.0163624617374) : omega : 	0.0175372336349 : d : 	(-0.143792157198 0.215200171088 0.965925826289)
	I44 : dAve : 	(-0.00262038918453 0.00531362362136 0.0163624617374) : omega : 	0.0175372336349 : d : 	(-0.114472736462 0.232127746542 0.965925826289)
	I45 : dAve : 	(-0.00190440433361 0.00561019425706 0.0163624617374) : omega : 	0.0175372336349 : d : 	(-0.083194655468 0.245083551895 0.965925826289)
	I46 : dAve : 	(-0.00115583459655 0.00581077291359 0.0163624617374) : omega : 	0.0175372336349 : d : 	(-0.050493090853 0.253845909725 0.965925826289)
	I47 : dAve : 	(-0.000387488209079 0.00591192763451 0.0163624617374) : omega : 	0.0175372336349 : d : 	(-0.0169275754541 0.25826489366 0.965925826289)
	I48 : dAve : 	(0.00223973005487 0.034171677215 0.0327249234749) : omega : 	0.0479126133149 : d : 	(0.0462469961895 0.70559281129 0.707106781187)
	I49 : dAve : 	(0.00668086776241 0.0335869903436 0.0327249234749) : omega : 	0.0479126133149 : d : 	(0.137949689641 0.693519922661 0.707106781187)
	I50 : dAve : 	(0.0110076939702 0.0324276207555 0.0327249234749) : omega : 	0.0479126133149 : d : 	(0.227292025657 0.669580715876 0.707106781187)
	I51 : dAve : 	(0.0151461754823 0.0307134055855 0.0327249234749) : omega : 	0.0479126133149 : d : 	(0.312745332096 0.634184797399 0.707106781187)
	I52 : dAve : 	(0.0190255017326 0.0284736755306 0.0327249234749) : omega : 	0.0479126133149 : d : 	(0.392847479194 0.58793780121 0.707106781187)
	I53 : dAve : 	(0.0225792963734 0.025746752993 0.0327249234749) : omega : 	0.0479126133149 : d : 	(0.466227897004 0.531631026234 0.707106781187)
	I54 : dAve : 	(0.025746752993 0.0225792963734 0.0327249234749) : omega : 	0.0479126133149 : d : 	(0.531631026234 0.466227897004 0.707106781187)
	I55 : dAve : 	(0.0284736755306 0.0190255017326 0.0327249234749) : omega : 	0.0479126133149 : d : 	(0.58793780121 0.392847479194 0.707106781187)
	I56 : dAve : 	(0.0307134055855 0.0151461754823 0.0327249234749) : omega : 	0.0479126133149 : d : 	(0.634184797399 0.312745332096 0.707106781187)
	I57 : dAve : 	(0.0324276207555 0.0110076939702 0.0327249234749) : omega : 	0.0479126133149 : d : 	(0.669580715876 0.227292025657 0.707106781187)
	I58 : dAve : 	(0.0335869903436 0.00668086776241 0.0327249234749) : omega : 	0.0479126133149 : d : 	(0.693519922661 0.137949689641 0.707106781187)
	I59 : dAve : 	(0.034171677215 0.00223973005487 0.0327249234749) : omega : 	0.0479126133149 : d : 	(0.70559281129 0.0462469961895 0.707106781187)
	I60 : dAve : 	(0.034171677215 -0.00223973005487 0.0327249234749) : omega : 	0.0479126133149 : d : 	(0.70559281129 -0.0462469961895 0.707106781187)
	I61 : dAve : 	(0.0335869903436 -0.00668086776241 0.0327249234749) : omega : 	0.0479126133149 : d : 	(0.693519922661 -0.137949689641 0.707106781187)
	I62 : dAve : 	(0.0324276207555 -0.0110076939702 0.0327249234749) : omega : 	0.0479126133149 : d : 	(0.669580715876 -0.227292025657 0.707106781187)
	I63 : dAve : 	(0.0307134055855 -0.0151461754823 0.0327249234749) : omega : 	0.0479126133149 : d : 	(0.634184797399 -0.312745332096 0.707106781187)
	I64 : dAve : 	(0.0284736755306 -0.0190255017326 0.0327249234749) : omega : 	0.0479126133149 : d : 	(0.58793780121 -0.392847479194 0.707106781187)
	I65 : dAve : 	(0.025746752993 -0.0225792963734 0.0327249234749) : omega : 	0.0479126133149 : d : 	(0.531631026234 -0.466227897004 0.707106781187)
	I66 : dAve : 	(0.0225792963734 -0.025746752993 0.0327249234749) : omega : 	0.0479126133149 : d : 	(0.466227897004 -0.531631026234 0.707106781187)
	I67 : dAve : 	(0.0190255017326 -0.0284736755306 0.0327249234749) : omega : 	0.0479126133149 : d : 	(0.392847479194 -0.58793780121 0.707106781187)
	I68 : dAve : 	(0.0151461754823 -0.0307134055855 0.0327249234749) : omega : 	0.0479126133149 : d : 	(0.312745332096 -0.634184797399 0.707106781187)
	I69 : dAve : 	(0.0110076939702 -0.0324276207555 0.0327249234749) : omega : 	0.0479126133149 : d : 	(0.227292025657 -0.669580715876 0.707106781187)
	I70 : dAve : 	(0.00668086776241 -0.0335869903436 0.0327249234749) : omega : 	0.0479126133149 : d : 	(0.137949689641 -0.693519922661 0.707106781187)
	I71 : dAve : 	(0.00223973005487 -0.034171677215 0.0327249234749) : omega : 	0.0479126133149 : d : 	(0.0462469961895 -0.70559281129 0.707106781187)
	I72 : dAve : 	(-0.00223973005487 -0.034171677215 0.0327249234749) : omega : 	0.0479126133149 : d : 	(-0.0462469961895 -0.70559281129 0.707106781187)
	I73 : dAve : 	(-0.00668086776241 -0.0335869903436 0.0327249234749) : omega : 	0.0479126133149 : d : 	(-0.137949689641 -0.693519922661 0.707106781187)
	I74 : dAve : 	(-0.0110076939702 -0.0324276207555 0.0327249234749) : omega : 	0.0479126133149 : d : 	(-0.227292025657 -0.669580715876 0.707106781187)
	I75 : dAve : 	(-0.0151461754823 -0.0307134055855 0.0327249234749) : omega : 	0.0479126133149 : d : 	(-0.312745332096 -0.634184797399 0.707106781187)
	I76 : dAve : 	(-0.0190255017326 -0.0284736755306 0.0327249234749) : omega : 	0.0479126133149 : d : 	(-0.392847479194 -0.58793780121 0.707106781187)
	I77 : dAve : 	(-0.0225792963734 -0.025746752993 0.0327249234749) : omega : 	0.0479126133149 : d : 	(-0.466227897004 -0.531631026234 0.707106781187)
	I78 : dAve : 	(-0.025746752993 -0.0225792963734 0.0327249234749) : omega : 	0.0479126133149 : d : 	(-0.531631026234 -0.466227897004 0.707106781187)
	I79 : dAve : 	(-0.0284736755306 -0.0190255017326 0.0327249234749) : omega : 	0.0479126133149 : d : 	(-0.58793780121 -0.392847479194 0.707106781187)
	I80 : dAve : 	(-0.0307134055855 -0.0151461754823 0.0327249234749) : omega : 	0.0479126133149 : d : 	(-0.634184797399 -0.312745332096 0.707106781187)
	I81 : dAve : 	(-0.0324276207555 -0.0110076939702 0.0327249234749) : omega : 	0.0479126133149 : d : 	(-0.669580715876 -0.227292025657 0.707106781187)
	I82 : dAve : 	(-0.0335869903436 -0.00668086776241 0.0327249234749) : omega : 	0.0479126133149 : d : 	(-0.693519922661 -0.137949689641 0.707106781187)
	I83 : dAve : 	(-0.034171677215 -0.00223973005487 0.0327249234749) : omega : 	0.0479126133149 : d : 	(-0.70559281129 -0.0462469961895 0.707106781187)
	I84 : dAve : 	(-0.034171677215 0.00223973005487 0.0327249234749) : omega : 	0.0479126133149 : d : 	(-0.70559281129 0.0462469961895 0.707106781187)
	I85 : dAve : 	(-0.0335869903436 0.00668086776241 0.0327249234749) : omega : 	0.0479126133149 : d : 	(-0.693519922661 0.137949689641 0.707106781187)
	I86 : dAve : 	(-0.0324276207555 0.0110076939702 0.0327249234749) : omega : 	0.0479126133149 : d : 	(-0.669580715876 0.227292025657 0.707106781187)
	I87 : dAve : 	(-0.0307134055855 0.0151461754823 0.0327249234749) : omega : 	0.0479126133149 : d : 	(-0.634184797399 0.312745332096 0.707106781187)
	I88 : dAve : 	(-0.0284736755306 0.0190255017326 0.0327249234749) : omega : 	0.0479126133149 : d : 	(-0.58793780121 0.392847479194 0.707106781187)
	I89 : dAve : 	(-0.025746752993 0.0225792963734 0.0327249234749) : omega : 	0.0479126133149 : d : 	(-0.531631026234 0.466227897004 0.707106781187)
	I90 : dAve : 	(-0.0225792963734 0.025746752993 0.0327249234749) : omega : 	0.0479126133149 : d : 	(-0.466227897004 0.531631026234 0.707106781187)
	I91 : dAve : 	(-0.0190255017326 0.0284736755306 0.0327249234749) : omega : 	0.0479126133149 : d : 	(-0.392847479194 0.58793780121 0.707106781187)
	I92 : dAve : 	(-0.0151461754823 0.0307134055855 0.0327249234749) : omega : 	0.0479126133149 : d : 	(-0.312745332096 0.634184797399 0.707106781187)
	I93 : dAve : 	(-0.0110076939702 0.0324276207555 0.0327249234749) : omega : 	0.0479126133149 : d : 	(-0.227292025657 0.669580715876 0.707106781187)
	I94 : dAve : 	(-0.00668086776241 0.0335869903436 0.0327249234749) : omega : 	0.0479126133149 : d : 	(-0.137949689641 0.693519922661 0.707106781187)
	I95 : dAve : 	(-0.00223973005487 0.034171677215 0.0327249234749) : omega : 	0.0479126133149 : d : 	(-0.0462469961895 0.70559281129 0.707106781187)
	I96 : dAve : 	(0.00409197190067 0.0624314267954 0.0163624617374) : omega : 	0.0654498469498 : d : 	(0.0631745716435 0.963857704949 0.258819045103)
	I97 : dAve : 	(0.0122059009283 0.0613632077737 0.0163624617374) : omega : 	0.0654498469498 : d : 	(0.188442780494 0.947365832386 0.258819045103)
	I98 : dAve : 	(0.0201109836069 0.0592450472539 0.0163624617374) : omega : 	0.0654498469498 : d : 	(0.310486681125 0.914664267771 0.258819045103)
	I99 : dAve : 	(0.0276719617802 0.0561131875497 0.0163624617374) : omega : 	0.0654498469498 : d : 	(0.427218068558 0.866312543941 0.258819045103)
	I100 : dAve : 	(0.0347594650153 0.052021215649 0.0163624617374) : omega : 	0.0654498469498 : d : 	(0.536639636391 0.803137972298 0.258819045103)
	I101 : dAve : 	(0.0412522241668 0.0470391463256 0.0163624617374) : omega : 	0.0654498469498 : d : 	(0.636879151261 0.726221487276 0.258819045103)
	I102 : dAve : 	(0.0470391463256 0.0412522241668 0.0163624617374) : omega : 	0.0654498469498 : d : 	(0.726221487276 0.636879151261 0.258819045103)
	I103 : dAve : 	(0.052021215649 0.0347594650153 0.0163624617374) : omega : 	0.0654498469498 : d : 	(0.803137972298 0.536639636391 0.258819045103)
	I104 : dAve : 	(0.0561131875497 0.0276719617802 0.0163624617374) : omega : 	0.0654498469498 : d : 	(0.866312543941 0.427218068558 0.258819045103)
	I105 : dAve : 	(0.0592450472539 0.0201109836069 0.0163624617374) : omega : 	0.0654498469498 : d : 	(0.914664267771 0.310486681125 0.258819045103)
	I106 : dAve : 	(0.0613632077737 0.0122059009283 0.0163624617374) : omega : 	0.0654498469498 : d : 	(0.947365832386 0.188442780494 0.258819045103)
	I107 : dAve : 	(0.0624314267954 0.00409197190067 0.0163624617374) : omega : 	0.0654498469498 : d : 	(0.963857704949 0.0631745716435 0.258819045103)
	I108 : dAve : 	(0.0624314267954 -0.00409197190067 0.0163624617374) : omega : 	0.0654498469498 : d : 	(0.963857704949 -0.0631745716435 0.258819045103)
	I109 : dAve : 	(0.0613632077737 -0.0122059009283 0.0163624617374) : omega : 	0.0654498469498 : d : 	(0.947365832386 -0.188442780494 0.258819045103)
	I110 : dAve : 	(0.0592450472539 -0.0201109836069 0.0163624617374) : omega : 	0.0654498469498 : d : 	(0.914664267771 -0.310486681125 0.258819045103)
	I111 : dAve : 	(0.0561131875497 -0.0276719617802 0.0163624617374) : omega : 	0.0654498469498 : d : 	(0.866312543941 -0.427218068558 0.258819045103)
	I112 : dAve : 	(0.052021215649 -0.0347594650153 0.0163624617374) : omega : 	0.0654498469498 : d : 	(0.803137972298 -0.536639636391 0.258819045103)
	I113 : dAve : 	(0.0470391463256 -0.0412522241668 0.0163624617374) : omega : 	0.0654498469498 : d : 	(0.726221487276 -0.636879151261 0.258819045103)
	I114 : dAve : 	(0.0412522241668 -0.0470391463256 0.0163624617374) : omega : 	0.0654498469498 : d : 	(0.636879151261 -0.726221487276 0.258819045103)
	I115 : dAve : 	(0.0347594650153 -0.052021215649 0.0163624617374) : omega : 	0.0654498469498 : d : 	(0.536639636391 -0.803137972298 0.258819045103)
	I116 : dAve : 	(0.0276719617802 -0.0561131875497 0.0163624617374) : omega : 	0.0654498469498 : d : 	(0.427218068558 -0.866312543941 0.258819045103)
	I117 : dAve : 	(0.0201109836069 -0.0592450472539 0.0163624617374) : omega : 	0.0654498469498 : d : 	(0.310486681125 -0.914664267771 0.258819045103)
	I118 : dAve : 	(0.0122059009283 -0.0613632077737 0.0163624617374) : omega : 	0.0654498469498 : d : 	(0.188442780494 -0.947365832386 0.258819045103)
	I119 : dAve : 	(0.00409197190067 -0.0624314267954 0.0163624617374) : omega : 	0.0654498469498 : d : 	(0.0631745716435 -0.963857704949 0.258819045103)
	I120 : dAve : 	(-0.00409197190067 -0.0624314267954 0.0163624617374) : omega : 	0.0654498469498 : d : 	(-0.0631745716435 -0.963857704949 0.258819045103)
	I121 : dAve : 	(-0.0122059009283 -0.0613632077737 0.0163624617374) : omega : 	0.0654498469498 : d : 	(-0.188442780494 -0.947365832386 0.258819045103)
	I122 : dAve : 	(-0.0201109836069 -0.0592450472539 0.0163624617374) : omega : 	0.0654498469498 : d : 	(-0.310486681125 -0.914664267771 0.258819045103)
	I123 : dAve : 	(-0.0276719617802 -0.0561131875497 0.0163624617374) : omega : 	0.0654498469498 : d : 	(-0.427218068558 -0.866312543941 0.258819045103)
	I124 : dAve : 	(-0.0347594650153 -0.052021215649 0.0163624617374) : omega : 	0.0654498469498 : d : 	(-0.536639636391 -0.803137972298 0.258819045103)
	I125 : dAve : 	(-0.0412522241668 -0.0470391463256 0.0163624617374) : omega : 	0.0654498469498 : d : 	(-0.636879151261 -0.726221487276 0.258819045103)
	I126 : dAve : 	(-0.0470391463256 -0.0412522241668 0.0163624617374) : omega : 	0.0654498469498 : d : 	(-0.726221487276 -0.636879151261 0.258819045103)
	I127 : dAve : 	(-0.052021215649 -0.0347594650153 0.0163624617374) : omega : 	0.0654498469498 : d : 	(-0.803137972298 -0.536639636391 0.258819045103)
	I128 : dAve : 	(-0.0561131875497 -0.0276719617802 0.0163624617374) : omega : 	0.0654498469498 : d : 	(-0.866312543941 -0.427218068558 0.258819045103)
	I129 : dAve : 	(-0.0592450472539 -0.0201109836069 0.0163624617374) : omega : 	0.0654498469498 : d : 	(-0.914664267771 -0.310486681125 0.258819045103)
	I130 : dAve : 	(-0.0613632077737 -0.0122059009283 0.0163624617374) : omega : 	0.0654498469498 : d : 	(-0.947365832386 -0.188442780494 0.258819045103)
	I131 : dAve : 	(-0.0624314267954 -0.00409197190067 0.0163624617374) : omega : 	0.0654498469498 : d : 	(-0.963857704949 -0.0631745716435 0.258819045103)
	I132 : dAve : 	(-0.0624314267954 0.00409197190067 0.0163624617374) : omega : 	0.0654498469498 : d : 	(-0.963857704949 0.0631745716435 0.258819045103)
	I133 : dAve : 	(-0.0613632077737 0.0122059009283 0.0163624617374) : omega : 	0.0654498469498 : d : 	(-0.947365832386 0.188442780494 0.258819045103)
	I134 : dAve : 	(-0.0592450472539 0.0201109836069 0.0163624617374) : omega : 	0.0654498469498 : d : 	(-0.914664267771 0.310486681125 0.258819045103)
	I135 : dAve : 	(-0.0561131875497 0.0276719617802 0.0163624617374) : omega : 	0.0654498469498 : d : 	(-0.866312543941 0.427218068558 0.258819045103)
	I136 : dAve : 	(-0.052021215649 0.0347594650153 0.0163624617374) : omega : 	0.0654498469498 : d : 	(-0.803137972298 0.536639636391 0.258819045103)
	I137 : dAve : 	(-0.0470391463256 0.0412522241668 0.0163624617374) : omega : 	0.0654498469498 : d : 	(-0.726221487276 0.636879151261 0.258819045103)
	I138 : dAve : 	(-0.0412522241668 0.0470391463256 0.0163624617374) : omega : 	0.0654498469498 : d : 	(-0.636879151261 0.726221487276 0.258819045103)
	I139 : dAve : 	(-0.0347594650153 0.052021215649 0.0163624617374) : omega : 	0.0654498469498 : d : 	(-0.536639636391 0.803137972298 0.258819045103)
	I140 : dAve : 	(-0.0276719617802 0.0561131875497 0.0163624617374) : omega : 	0.0654498469498 : d : 	(-0.427218068558 0.866312543941 0.258819045103)
	I141 : dAve : 	(-0.0201109836069 0.0592450472539 0.0163624617374) : omega : 	0.0654498469498 : d : 	(-0.310486681125 0.914664267771 0.258819045103)
	I142 : dAve : 	(-0.0122059009283 0.0613632077737 0.0163624617374) : omega : 	0.0654498469498 : d : 	(-0.188442780494 0.947365832386 0.258819045103)
	I143 : dAve : 	(-0.00409197190067 0.0624314267954 0.0163624617374) : omega : 	0.0654498469498 : d : 	(-0.0631745716435 0.963857704949 0.258819045103)
	I144 : dAve : 	(0.00409197190067 0.0624314267954 -0.0163624617374) : omega : 	0.0654498469498 : d : 	(0.0631745716435 0.963857704949 -0.258819045103)
	I145 : dAve : 	(0.0122059009283 0.0613632077737 -0.0163624617374) : omega : 	0.0654498469498 : d : 	(0.188442780494 0.947365832386 -0.258819045103)
	I146 : dAve : 	(0.0201109836069 0.0592450472539 -0.0163624617374) : omega : 	0.0654498469498 : d : 	(0.310486681125 0.914664267771 -0.258819045103)
	I147 : dAve : 	(0.0276719617802 0.0561131875497 -0.0163624617374) : omega : 	0.0654498469498 : d : 	(0.427218068558 0.866312543941 -0.258819045103)
	I148 : dAve : 	(0.0347594650153 0.052021215649 -0.0163624617374) : omega : 	0.0654498469498 : d : 	(0.536639636391 0.803137972298 -0.258819045103)
	I149 : dAve : 	(0.0412522241668 0.0470391463256 -0.0163624617374) : omega : 	0.0654498469498 : d : 	(0.636879151261 0.726221487276 -0.258819045103)
	I150 : dAve : 	(0.0470391463256 0.0412522241668 -0.0163624617374) : omega : 	0.0654498469498 : d : 	(0.726221487276 0.636879151261 -0.258819045103)
	I151 : dAve : 	(0.052021215649 0.0347594650153 -0.0163624617374) : omega : 	0.0654498469498 : d : 	(0.803137972298 0.536639636391 -0.258819045103)
	I152 : dAve : 	(0.0561131875497 0.0276719617802 -0.0163624617374) : omega : 	0.0654498469498 : d : 	(0.866312543941 0.427218068558 -0.258819045103)
	I153 : dAve : 	(0.0592450472539 0.0201109836069 -0.0163624617374) : omega : 	0.0654498469498 : d : 	(0.914664267771 0.310486681125 -0.258819045103)
	I154 : dAve : 	(0.0613632077737 0.0122059009283 -0.0163624617374) : omega : 	0.0654498469498 : d : 	(0.947365832386 0.188442780494 -0.258819045103)
	I155 : dAve : 	(0.0624314267954 0.00409197190067 -0.0163624617374) : omega : 	0.0654498469498 : d : 	(0.963857704949 0.0631745716435 -0.258819045103)
	I156 : dAve : 	(0.0624314267954 -0.00409197190067 -0.0163624617374) : omega : 	0.0654498469498 : d : 	(0.963857704949 -0.0631745716435 -0.258819045103)
	I157 : dAve : 	(0.0613632077737 -0.0122059009283 -0.0163624617374) : omega : 	0.0654498469498 : d : 	(0.947365832386 -0.188442780494 -0.258819045103)
	I158 : dAve : 	(0.0592450472539 -0.0201109836069 -0.0163624617374) : omega : 	0.0654498469498 : d : 	(0.914664267771 -0.310486681125 -0.258819045103)
	I159 : dAve : 	(0.0561131875497 -0.0276719617802 -0.0163624617374) : omega : 	0.0654498469498 : d : 	(0.866312543941 -0.427218068558 -0.258819045103)
	I160 : dAve : 	(0.052021215649 -0.0347594650153 -0.0163624617374) : omega : 	0.0654498469498 : d : 	(0.803137972298 -0.536639636391 -0.258819045103)
	I161 : dAve : 	(0.0470391463256 -0.0412522241668 -0.0163624617374) : omega : 	0.0654498469498 : d : 	(0.726221487276 -0.636879151261 -0.258819045103)
	I162 : dAve : 	(0.0412522241668 -0.0470391463256 -0.0163624617374) : omega : 	0.0654498469498 : d : 	(0.636879151261 -0.726221487276 -0.258819045103)
	I163 : dAve : 	(0.0347594650153 -0.052021215649 -0.0163624617374) : omega : 	0.0654498469498 : d : 	(0.536639636391 -0.803137972298 -0.258819045103)
	I164 : dAve : 	(0.0276719617802 -0.0561131875497 -0.0163624617374) : omega : 	0.0654498469498 : d : 	(0.427218068558 -0.866312543941 -0.258819045103)
	I165 : dAve : 	(0.0201109836069 -0.0592450472539 -0.0163624617374) : omega : 	0.0654498469498 : d : 	(0.310486681125 -0.914664267771 -0.258819045103)
	I166 : dAve : 	(0.0122059009283 -0.0613632077737 -0.0163624617374) : omega : 	0.0654498469498 : d : 	(0.188442780494 -0.947365832386 -0.258819045103)
	I167 : dAve : 	(0.00409197190067 -0.0624314267954 -0.0163624617374) : omega : 	0.0654498469498 : d : 	(0.0631745716435 -0.963857704949 -0.258819045103)
	I168 : dAve : 	(-0.00409197190067 -0.0624314267954 -0.0163624617374) : omega : 	0.0654498469498 : d : 	(-0.0631745716435 -0.963857704949 -0.258819045103)
	I169 : dAve : 	(-0.0122059009283 -0.0613632077737 -0.0163624617374) : omega : 	0.0654498469498 : d : 	(-0.188442780494 -0.947365832386 -0.258819045103)
	I170 : dAve : 	(-0.0201109836069 -0.0592450472539 -0.0163624617374) : omega : 	0.0654498469498 : d : 	(-0.310486681125 -0.914664267771 -0.258819045103)
	I171 : dAve : 	(-0.0276719617802 -0.0561131875497 -0.0163624617374) : omega : 	0.0654498469498 : d : 	(-0.427218068558 -0.866312543941 -0.258819045103)
	I172 : dAve : 	(-0.0347594650153 -0.052021215649 -0.0163624617374) : omega : 	0.0654498469498 : d : 	(-0.536639636391 -0.803137972298 -0.258819045103)
	I173 : dAve : 	(-0.0412522241668 -0.0470391463256 -0.0163624617374) : omega : 	0.0654498469498 : d : 	(-0.636879151261 -0.726221487276 -0.258819045103)
	I174 : dAve : 	(-0.0470391463256 -0.0412522241668 -0.0163624617374) : omega : 	0.0654498469498 : d : 	(-0.726221487276 -0.636879151261 -0.258819045103)
	I175 : dAve : 	(-0.052021215649 -0.0347594650153 -0.0163624617374) : omega : 	0.0654498469498 : d : 	(-0.803137972298 -0.536639636391 -0.258819045103)
	I176 : dAve : 	(-0.0561131875497 -0.0276719617802 -0.0163624617374) : omega : 	0.0654498469498 : d : 	(-0.866312543941 -0.427218068558 -0.258819045103)
	I177 : dAve : 	(-0.0592450472539 -0.0201109836069 -0.0163624617374) : omega : 	0.0654498469498 : d : 	(-0.914664267771 -0.310486681125 -0.258819045103)
	I178 : dAve : 	(-0.0613632077737 -0.0122059009283 -0.0163624617374) : omega : 	0.0654498469498 : d : 	(-0.947365832386 -0.188442780494 -0.258819045103)
	I179 : dAve : 	(-0.0624314267954 -0.00409197190067 -0.0163624617374) : omega : 	0.0654498469498 : d : 	(-0.963857704949 -0.0631745716435 -0.258819045103)
	I180 : dAve : 	(-0.0624314267954 0.00409197190067 -0.0163624617374) : omega : 	0.0654498469498 : d : 	(-0.963857704949 0.0631745716435 -0.258819045103)
	I181 : dAve : 	(-0.0613632077737 0.0122059009283 -0.0163624617374) : omega : 	0.0654498469498 : d : 	(-0.947365832386 0.188442780494 -0.258819045103)
	I182 : dAve : 	(-0.0592450472539 0.0201109836069 -0.0163624617374) : omega : 	0.0654498469498 : d : 	(-0.914664267771 0.310486681125 -0.258819045103)
	I183 : dAve : 	(-0.0561131875497 0.0276719617802 -0.0163624617374) : omega : 	0.0654498469498 : d : 	(-0.866312543941 0.427218068558 -0.258819045103)
	I184 : dAve : 	(-0.052021215649 0.0347594650153 -0.0163624617374) : omega : 	0.0654498469498 : d : 	(-0.803137972298 0.536639636391 -0.258819045103)
	I185 : dAve : 	(-0.0470391463256 0.0412522241668 -0.0163624617374) : omega : 	0.0654498469498 : d : 	(-0.726221487276 0.636879151261 -0.258819045103)
	I186 : dAve : 	(-0.0412522241668 0.0470391463256 -0.0163624617374) : omega : 	0.0654498469498 : d : 	(-0.636879151261 0.726221487276 -0.258819045103)
	I187 : dAve : 	(-0.0347594650153 0.052021215649 -0.0163624617374) : omega : 	0.0654498469498 : d : 	(-0.536639636391 0.803137972298 -0.258819045103)
	I188 : dAve : 	(-0.0276719617802 0.0561131875497 -0.0163624617374) : omega : 	0.0654498469498 : d : 	(-0.427218068558 0.866312543941 -0.258819045103)
	I189 : dAve : 	(-0.0201109836069 0.0592450472539 -0.0163624617374) : omega : 	0.0654498469498 : d : 	(-0.310486681125 0.914664267771 -0.258819045103)
	I190 : dAve : 	(-0.0122059009283 0.0613632077737 -0.0163624617374) : omega : 	0.0654498469498 : d : 	(-0.188442780494 0.947365832386 -0.258819045103)
	I191 : dAve : 	(-0.00409197190067 0.0624314267954 -0.0163624617374) : omega : 	0.0654498469498 : d : 	(-0.0631745716435 0.963857704949 -0.258819045103)
	I192 : dAve : 	(0.00223973005487 0.034171677215 -0.0327249234749) : omega : 	0.0479126133149 : d : 	(0.0462469961895 0.70559281129 -0.707106781187)
	I193 : dAve : 	(0.00668086776241 0.0335869903436 -0.0327249234749) : omega : 	0.0479126133149 : d : 	(0.137949689641 0.693519922661 -0.707106781187)
	I194 : dAve : 	(0.0110076939702 0.0324276207555 -0.0327249234749) : omega : 	0.0479126133149 : d : 	(0.227292025657 0.669580715876 -0.707106781187)
	I195 : dAve : 	(0.0151461754823 0.0307134055855 -0.0327249234749) : omega : 	0.0479126133149 : d : 	(0.312745332096 0.634184797399 -0.707106781187)
	I196 : dAve : 	(0.0190255017326 0.0284736755306 -0.0327249234749) : omega : 	0.0479126133149 : d : 	(0.392847479194 0.58793780121 -0.707106781187)
	I197 : dAve : 	(0.0225792963734 0.025746752993 -0.0327249234749) : omega : 	0.0479126133149 : d : 	(0.466227897004 0.531631026234 -0.707106781187)
	I198 : dAve : 	(0.025746752993 0.0225792963734 -0.0327249234749) : omega : 	0.0479126133149 : d : 	(0.531631026234 0.466227897004 -0.707106781187)
	I199 : dAve : 	(0.0284736755306 0.0190255017326 -0.0327249234749) : omega : 	0.0479126133149 : d : 	(0.58793780121 0.392847479194 -0.707106781187)
	I200 : dAve : 	(0.0307134055855 0.0151461754823 -0.0327249234749) : omega : 	0.0479126133149 : d : 	(0.634184797399 0.312745332096 -0.707106781187)
	I201 : dAve : 	(0.0324276207555 0.0110076939702 -0.0327249234749) : omega : 	0.0479126133149 : d : 	(0.669580715876 0.227292025657 -0.707106781187)
	I202 : dAve : 	(0.0335869903436 0.00668086776241 -0.0327249234749) : omega : 	0.0479126133149 : d : 	(0.693519922661 0.137949689641 -0.707106781187)
	I203 : dAve : 	(0.034171677215 0.00223973005487 -0.0327249234749) : omega : 	0.0479126133149 : d : 	(0.70559281129 0.0462469961895 -0.707106781187)
	I204 : dAve : 	(0.034171677215 -0.00223973005487 -0.0327249234749) : omega : 	0.0479126133149 : d : 	(0.70559281129 -0.0462469961895 -0.707106781187)
	I205 : dAve : 	(0.0335869903436 -0.00668086776241 -0.0327249234749) : omega : 	0.0479126133149 : d : 	(0.693519922661 -0.137949689641 -0.707106781187)
	I206 : dAve : 	(0.0324276207555 -0.0110076939702 -0.0327249234749) : omega : 	0.0479126133149 : d : 	(0.669580715876 -0.227292025657 -0.707106781187)
	I207 : dAve : 	(0.0307134055855 -0.0151461754823 -0.0327249234749) : omega : 	0.0479126133149 : d : 	(0.634184797399 -0.312745332096 -0.707106781187)
	I208 : dAve : 	(0.0284736755306 -0.0190255017326 -0.0327249234749) : omega : 	0.0479126133149 : d : 	(0.58793780121 -0.392847479194 -0.707106781187)
	I209 : dAve : 	(0.025746752993 -0.0225792963734 -0.0327249234749) : omega : 	0.0479126133149 : d : 	(0.531631026234 -0.466227897004 -0.707106781187)
	I210 : dAve : 	(0.0225792963734 -0.025746752993 -0.0327249234749) : omega : 	0.0479126133149 : d : 	(0.466227897004 -0.531631026234 -0.707106781187)
	I211 : dAve : 	(0.0190255017326 -0.0284736755306 -0.0327249234749) : omega : 	0.0479126133149 : d : 	(0.392847479194 -0.58793780121 -0.707106781187)
	I212 : dAve : 	(0.0151461754823 -0.0307134055855 -0.0327249234749) : omega : 	0.0479126133149 : d : 	(0.312745332096 -0.634184797399 -0.707106781187)
	I213 : dAve : 	(0.0110076939702 -0.0324276207555 -0.0327249234749) : omega : 	0.0479126133149 : d : 	(0.227292025657 -0.669580715876 -0.707106781187)
	I214 : dAve : 	(0.00668086776241 -0.0335869903436 -0.0327249234749) : omega : 	0.0479126133149 : d : 	(0.137949689641 -0.693519922661 -0.707106781187)
	I215 : dAve : 	(0.00223973005487 -0.034171677215 -0.0327249234749) : omega : 	0.0479126133149 : d : 	(0.0462469961895 -0.70559281129 -0.707106781187)
	I216 : dAve : 	(-0.00223973005487 -0.034171677215 -0.0327249234749) : omega : 	0.0479126133149 : d : 	(-0.0462469961895 -0.70559281129 -0.707106781187)
	I217 : dAve : 	(-0.00668086776241 -0.0335869903436 -0.0327249234749) : omega : 	0.0479126133149 : d : 	(-0.137949689641 -0.693519922661 -0.707106781187)
	I218 : dAve : 	(-0.0110076939702 -0.0324276207555 -0.0327249234749) : omega : 	0.0479126133149 : d : 	(-0.227292025657 -0.669580715876 -0.707106781187)
	I219 : dAve : 	(-0.0151461754823 -0.0307134055855 -0.0327249234749) : omega : 	0.0479126133149 : d : 	(-0.312745332096 -0.634184797399 -0.707106781187)
	I220 : dAve : 	(-0.0190255017326 -0.0284736755306 -0.0327249234749) : omega : 	0.0479126133149 : d : 	(-0.392847479194 -0.58793780121 -0.707106781187)
	I221 : dAve : 	(-0.0225792963734 -0.025746752993 -0.0327249234749) : omega : 	0.0479126133149 : d : 	(-0.466227897004 -0.531631026234 -0.707106781187)
	I222 : dAve : 	(-0.025746752993 -0.0225792963734 -0.0327249234749) : omega : 	0.0479126133149 : d : 	(-0.531631026234 -0.466227897004 -0.707106781187)
	I223 : dAve : 	(-0.0284736755306 -0.0190255017326 -0.0327249234749) : omega : 	0.0479126133149 : d : 	(-0.58793780121 -0.392847479194 -0.707106781187)
	I224 : dAve : 	(-0.0307134055855 -0.0151461754823 -0.0327249234749) : omega : 	0.0479126133149 : d : 	(-0.634184797399 -0.312745332096 -0.707106781187)
	I225 : dAve : 	(-0.0324276207555 -0.0110076939702 -0.0327249234749) : omega : 	0.0479126133149 : d : 	(-0.669580715876 -0.227292025657 -0.707106781187)
	I226 : dAve : 	(-0.0335869903436 -0.00668086776241 -0.0327249234749) : omega : 	0.0479126133149 : d : 	(-0.693519922661 -0.137949689641 -0.707106781187)
	I227 : dAve : 	(-0.034171677215 -0.00223973005487 -0.0327249234749) : omega : 	0.0479126133149 : d : 	(-0.70559281129 -0.0462469961895 -0.707106781187)
	I228 : dAve : 	(-0.034171677215 0.00223973005487 -0.0327249234749) : omega : 	0.0479126133149 : d : 	(-0.70559281129 0.0462469961895 -0.707106781187)
	I229 : dAve : 	(-0.0335869903436 0.00668086776241 -0.0327249234749) : omega : 	0.0479126133149 : d : 	(-0.693519922661 0.137949689641 -0.707106781187)
	I230 : dAve : 	(-0.0324276207555 0.0110076939702 -0.0327249234749) : omega : 	0.0479126133149 : d : 	(-0.669580715876 0.227292025657 -0.707106781187)
	I231 : dAve : 	(-0.0307134055855 0.0151461754823 -0.0327249234749) : omega : 	0.0479126133149 : d : 	(-0.634184797399 0.312745332096 -0.707106781187)
	I232 : dAve : 	(-0.0284736755306 0.0190255017326 -0.0327249234749) : omega : 	0.0479126133149 : d : 	(-0.58793780121 0.392847479194 -0.707106781187)
	I233 : dAve : 	(-0.025746752993 0.0225792963734 -0.0327249234749) : omega : 	0.0479126133149 : d : 	(-0.531631026234 0.466227897004 -0.707106781187)
	I234 : dAve : 	(-0.0225792963734 0.025746752993 -0.0327249234749) : omega : 	0.0479126133149 : d : 	(-0.466227897004 0.531631026234 -0.707106781187)
	I235 : dAve : 	(-0.0190255017326 0.0284736755306 -0.0327249234749) : omega : 	0.0479126133149 : d : 	(-0.392847479194 0.58793780121 -0.707106781187)
	I236 : dAve : 	(-0.0151461754823 0.0307134055855 -0.0327249234749) : omega : 	0.0479126133149 : d : 	(-0.312745332096 0.634184797399 -0.707106781187)
	I237 : dAve : 	(-0.0110076939702 0.0324276207555 -0.0327249234749) : omega : 	0.0479126133149 : d : 	(-0.227292025657 0.669580715876 -0.707106781187)
	I238 : dAve : 	(-0.00668086776241 0.0335869903436 -0.0327249234749) : omega : 	0.0479126133149 : d : 	(-0.137949689641 0.693519922661 -0.707106781187)
	I239 : dAve : 	(-0.00223973005487 0.034171677215 -0.0327249234749) : omega : 	0.0479126133149 : d : 	(-0.0462469961895 0.70559281129 -0.707106781187)
	I240 : dAve : 	(0.000387488209079 0.00591192763451 -0.0163624617374) : omega : 	0.0175372336349 : d : 	(0.0169275754541 0.25826489366 -0.965925826289)
	I241 : dAve : 	(0.00115583459655 0.00581077291359 -0.0163624617374) : omega : 	0.0175372336349 : d : 	(0.050493090853 0.253845909725 -0.965925826289)
	I242 : dAve : 	(0.00190440433361 0.00561019425706 -0.0163624617374) : omega : 	0.0175372336349 : d : 	(0.083194655468 0.245083551895 -0.965925826289)
	I243 : dAve : 	(0.00262038918453 0.00531362362136 -0.0163624617374) : omega : 	0.0175372336349 : d : 	(0.114472736462 0.232127746542 -0.965925826289)
	I244 : dAve : 	(0.00329153844998 0.00492613541228 -0.0163624617374) : omega : 	0.0175372336349 : d : 	(0.143792157198 0.215200171088 -0.965925826289)
	I245 : dAve : 	(0.00390636857998 0.00445435966052 -0.0163624617374) : omega : 	0.0175372336349 : d : 	(0.170651254257 0.194590461042 -0.965925826289)
	I246 : dAve : 	(0.00445435966052 0.00390636857998 -0.0163624617374) : omega : 	0.0175372336349 : d : 	(0.194590461042 0.170651254257 -0.965925826289)
	I247 : dAve : 	(0.00492613541228 0.00329153844998 -0.0163624617374) : omega : 	0.0175372336349 : d : 	(0.215200171088 0.143792157198 -0.965925826289)
	I248 : dAve : 	(0.00531362362136 0.00262038918453 -0.0163624617374) : omega : 	0.0175372336349 : d : 	(0.232127746542 0.114472736462 -0.965925826289)
	I249 : dAve : 	(0.00561019425706 0.00190440433361 -0.0163624617374) : omega : 	0.0175372336349 : d : 	(0.245083551895 0.083194655468 -0.965925826289)
	I250 : dAve : 	(0.00581077291359 0.00115583459655 -0.0163624617374) : omega : 	0.0175372336349 : d : 	(0.253845909725 0.050493090853 -0.965925826289)
	I251 : dAve : 	(0.00591192763451 0.000387488209079 -0.0163624617374) : omega : 	0.0175372336349 : d : 	(0.25826489366 0.0169275754541 -0.965925826289)
	I252 : dAve : 	(0.00591192763451 -0.000387488209079 -0.0163624617374) : omega : 	0.0175372336349 : d : 	(0.25826489366 -0.0169275754541 -0.965925826289)
	I253 : dAve : 	(0.00581077291359 -0.00115583459655 -0.0163624617374) : omega : 	0.0175372336349 : d : 	(0.253845909725 -0.050493090853 -0.965925826289)
	I254 : dAve : 	(0.00561019425706 -0.00190440433361 -0.0163624617374) : omega : 	0.0175372336349 : d : 	(0.245083551895 -0.083194655468 -0.965925826289)
	I255 : dAve : 	(0.00531362362136 -0.00262038918453 -0.0163624617374) : omega : 	0.0175372336349 : d : 	(0.232127746542 -0.114472736462 -0.965925826289)
	I256 : dAve : 	(0.00492613541228 -0.00329153844998 -0.0163624617374) : omega : 	0.0175372336349 : d : 	(0.215200171088 -0.143792157198 -0.965925826289)
	I257 : dAve : 	(0.00445435966052 -0.00390636857998 -0.0163624617374) : omega : 	0.0175372336349 : d : 	(0.194590461042 -0.170651254257 -0.965925826289)
	I258 : dAve : 	(0.00390636857998 -0.00445435966052 -0.0163624617374) : omega : 	0.0175372336349 : d : 	(0.170651254257 -0.194590461042 -0.965925826289)
	I259 : dAve : 	(0.00329153844998 -0.00492613541228 -0.0163624617374) : omega : 	0.0175372336349 : d : 	(0.143792157198 -0.215200171088 -0.965925826289)
	I260 : dAve : 	(0.00262038918453 -0.00531362362136 -0.0163624617374) : omega : 	0.0175372336349 : d : 	(0.114472736462 -0.232127746542 -0.965925826289)
	I261 : dAve : 	(0.00190440433361 -0.00561019425706 -0.0163624617374) : omega : 	0.0175372336349 : d : 	(0.083194655468 -0.245083551895 -0.965925826289)
	I262 : dAve : 	(0.00115583459655 -0.00581077291359 -0.0163624617374) : omega : 	0.0175372336349 : d : 	(0.050493090853 -0.253845909725 -0.965925826289)
	I263 : dAve : 	(0.000387488209079 -0.00591192763451 -0.0163624617374) : omega : 	0.0175372336349 : d : 	(0.0169275754541 -0.25826489366 -0.965925826289)
	I264 : dAve : 	(-0.000387488209079 -0.00591192763451 -0.0163624617374) : omega : 	0.0175372336349 : d : 	(-0.0169275754541 -0.25826489366 -0.965925826289)
	I265 : dAve : 	(-0.00115583459655 -0.00581077291359 -0.0163624617374) : omega : 	0.0175372336349 : d : 	(-0.050493090853 -0.253845909725 -0.965925826289)
	I266 : dAve : 	(-0.00190440433361 -0.00561019425706 -0.0163624617374) : omega : 	0.0175372336349 : d : 	(-0.083194655468 -0.245083551895 -0.965925826289)
	I267 : dAve : 	(-0.00262038918453 -0.00531362362136 -0.0163624617374) : omega : 	0.0175372336349 : d : 	(-0.114472736462 -0.232127746542 -0.965925826289)
	I268 : dAve : 	(-0.00329153844998 -0.00492613541228 -0.0163624617374) : omega : 	0.0175372336349 : d : 	(-0.143792157198 -0.215200171088 -0.965925826289)
	I269 : dAve : 	(-0.00390636857998 -0.00445435966052 -0.0163624617374) : omega : 	0.0175372336349 : d : 	(-0.170651254257 -0.194590461042 -0.965925826289)
	I270 : dAve : 	(-0.00445435966052 -0.00390636857998 -0.0163624617374) : omega : 	0.0175372336349 : d : 	(-0.194590461042 -0.170651254257 -0.965925826289)
	I271 : dAve : 	(-0.00492613541228 -0.00329153844998 -0.0163624617374) : omega : 	0.0175372336349 : d : 	(-0.215200171088 -0.143792157198 -0.965925826289)
	I272 : dAve : 	(-0.00531362362136 -0.00262038918453 -0.0163624617374) : omega : 	0.0175372336349 : d : 	(-0.232127746542 -0.114472736462 -0.965925826289)
	I273 : dAve : 	(-0.00561019425706 -0.00190440433361 -0.0163624617374) : omega : 	0.0175372336349 : d : 	(-0.245083551895 -0.083194655468 -0.965925826289)
	I274 : dAve : 	(-0.00581077291359 -0.00115583459655 -0.0163624617374) : omega : 	0.0175372336349 : d : 	(-0.253845909725 -0.050493090853 -0.965925826289)
	I275 : dAve : 	(-0.00591192763451 -0.000387488209079 -0.0163624617374) : omega : 	0.0175372336349 : d : 	(-0.25826489366 -0.0169275754541 -0.965925826289)
	I276 : dAve : 	(-0.00591192763451 0.000387488209079 -0.0163624617374) : omega : 	0.0175372336349 : d : 	(-0.25826489366 0.0169275754541 -0.965925826289)
	I277 : dAve : 	(-0.00581077291359 0.00115583459655 -0.0163624617374) : omega : 	0.0175372336349 : d : 	(-0.253845909725 0.050493090853 -0.965925826289)
	I278 : dAve : 	(-0.00561019425706 0.00190440433361 -0.0163624617374) : omega : 	0.0175372336349 : d : 	(-0.245083551895 0.083194655468 -0.965925826289)
	I279 : dAve : 	(-0.00531362362136 0.00262038918453 -0.0163624617374) : omega : 	0.0175372336349 : d : 	(-0.232127746542 0.114472736462 -0.965925826289)
	I280 : dAve : 	(-0.00492613541228 0.00329153844998 -0.0163624617374) : omega : 	0.0175372336349 : d : 	(-0.215200171088 0.143792157198 -0.965925826289)
	I281 : dAve : 	(-0.00445435966052 0.00390636857998 -0.0163624617374) : omega : 	0.0175372336349 : d : 	(-0.194590461042 0.170651254257 -0.965925826289)
	I282 : dAve : 	(-0.00390636857998 0.00445435966052 -0.0163624617374) : omega : 	0.0175372336349 : d : 	(-0.170651254257 0.194590461042 -0.965925826289)
	I283 : dAve : 	(-0.00329153844998 0.00492613541228 -0.0163624617374) : omega : 	0.0175372336349 : d : 	(-0.143792157198 0.215200171088 -0.965925826289)
	I284 : dAve : 	(-0.00262038918453 0.00531362362136 -0.0163624617374) : omega : 	0.0175372336349 : d : 	(-0.114472736462 0.232127746542 -0.965925826289)
	I285 : dAve : 	(-0.00190440433361 0.00561019425706 -0.0163624617374) : omega : 	0.0175372336349 : d : 	(-0.083194655468 0.245083551895 -0.965925826289)
	I286 : dAve : 	(-0.00115583459655 0.00581077291359 -0.0163624617374) : omega : 	0.0175372336349 : d : 	(-0.050493090853 0.253845909725 -0.965925826289)
	I287 : dAve : 	(-0.000387488209079 0.00591192763451 -0.0163624617374) : omega : 	0.0175372336349 : d : 	(-0.0169275754541 0.25826489366 -0.965925826289)
Total omega : 12.5663706144

Courant Number mean: 0 max: 0

Starting time loop

Sampled set:
    data -> csv

Sampled set:
    data -> csv

Sampled surface:
    yNormal -> ensight
        sampledCuttingPlane: yNormal : plane:(0 1 0) (0 0 0) offsets:(0)

Sampled surface:
    zNormal -> ensight
        sampledCuttingPlane: zNormal : plane:(0 0 1) (0 0 0) offsets:(0)

Sampled surface:
    patchAll -> ensight
        sampledPatch: patchAll : patches:(".*WW.*")

deltaT = 1
Time = 1

PIMPLE: iteration 1
Radiation solver iter: 0
DILUPBiCGStab:  Solving for ILambda_0_0, Initial residual = 1, Final residual = 9.8899961549e-62, No Iterations 2
DILUPBiCGStab:  Solving for ILambda_1_0, Initial residual = 1, Final residual = 6.4770625397e-62, No Iterations 2
DILUPBiCGStab:  Solving for ILambda_2_0, Initial residual = 1, Final residual = 7.72227225042e-62, No Iterations 2
DILUPBiCGStab:  Solving for ILambda_3_0, Initial residual = 1, Final residual = 8.56618952339e-62, No Iterations 2
DILUPBiCGStab:  Solving for ILambda_4_0, Initial residual = 1, Final residual = 4.17511090406e-62, No Iterations 2
DILUPBiCGStab:  Solving for ILambda_5_0, Initial residual = 1, Final residual = 3.69098637774e-62, No Iterations 2
DILUPBiCGStab:  Solving for ILambda_6_0, Initial residual = 1, Final residual = 3.96265877928e-62, No Iterations 2
DILUPBiCGStab:  Solving for ILambda_7_0, Initial residual = 1, Final residual = 4.24737307344e-62, No Iterations 2
DILUPBiCGStab:  Solving for ILambda_8_0, Initial residual = 1, Final residual = 7.96452120095e-62, No Iterations 2
DILUPBiCGStab:  Solving for ILambda_9_0, Initial residual = 1, Final residual = 4.14851378449e-62, No Iterations 2
DILUPBiCGStab:  Solving for ILambda_10_0, Initial residual = 1, Final residual = 5.99760560128e-62, No Iterations 2
DILUPBiCGStab:  Solving for ILambda_11_0, Initial residual = 1, Final residual = 5.36105451732e-62, No Iterations 2
DILUPBiCGStab:  Solving for ILambda_12_0, Initial residual = 1, Final residual = 1.57092256669e-61, No Iterations 47
DILUPBiCGStab:  Solving for ILambda_13_0, Initial residual = 1, Final residual = 7.64914795968e-61, No Iterations 74
DILUPBiCGStab:  Solving for ILambda_14_0, Initial residual = 1, Final residual = 3.558165338e-61, No Iterations 92
DILUPBiCGStab:  Solving for ILambda_15_0, Initial residual = 1, Final residual = 7.77519070782e-63, No Iterations 109
DILUPBiCGStab:  Solving for ILambda_16_0, Initial residual = 1, Final residual = 2.71374251659e-61, No Iterations 117
DILUPBiCGStab:  Solving for ILambda_17_0, Initial residual = 1, Final residual = 8.20122365848e-61, No Iterations 119
DILUPBiCGStab:  Solving for ILambda_18_0, Initial residual = 1, Final residual = 6.64302551532e-61, No Iterations 117
DILUPBiCGStab:  Solving for ILambda_19_0, Initial residual = 1, Final residual = 4.48837545582e-61, No Iterations 114
DILUPBiCGStab:  Solving for ILambda_20_0, Initial residual = 1, Final residual = 2.43211427863e-61, No Iterations 106
DILUPBiCGStab:  Solving for ILambda_21_0, Initial residual = 1, Final residual = 6.97653445677e-61, No Iterations 90
DILUPBiCGStab:  Solving for ILambda_22_0, Initial residual = 1, Final residual = 2.66777261271e-62, No Iterations 74
DILUPBiCGStab:  Solving for ILambda_23_0, Initial residual = 1, Final residual = 4.87805280405e-61, No Iterations 48
DILUPBiCGStab:  Solving for ILambda_24_0, Initial residual = 1, Final residual = 2.3581226008e-61, No Iterations 39
DILUPBiCGStab:  Solving for ILambda_25_0, Initial residual = 1, Final residual = 5.5617866388e-61, No Iterations 39
DILUPBiCGStab:  Solving for ILambda_26_0, Initial residual = 1, Final residual = 7.73308523914e-62, No Iterations 39
DILUPBiCGStab:  Solving for ILambda_27_0, Initial residual = 1, Final residual = 7.05184299834e-61, No Iterations 39
DILUPBiCGStab:  Solving for ILambda_28_0, Initial residual = 1, Final residual = 2.65935421956e-61, No Iterations 39
DILUPBiCGStab:  Solving for ILambda_29_0, Initial residual = 1, Final residual = 5.84953383932e-62, No Iterations 39
DILUPBiCGStab:  Solving for ILambda_30_0, Initial residual = 1, Final residual = 2.39362781718e-61, No Iterations 39
DILUPBiCGStab:  Solving for ILambda_31_0, Initial residual = 1, Final residual = 3.85918907673e-61, No Iterations 39
DILUPBiCGStab:  Solving for ILambda_32_0, Initial residual = 1, Final residual = 8.03845411956e-61, No Iterations 39
DILUPBiCGStab:  Solving for ILambda_33_0, Initial residual = 1, Final residual = 4.32003794281e-61, No Iterations 39
DILUPBiCGStab:  Solving for ILambda_34_0, Initial residual = 1, Final residual = 5.4617775432e-61, No Iterations 39
DILUPBiCGStab:  Solving for ILambda_35_0, Initial residual = 1, Final residual = 1.85673227143e-61, No Iterations 39
DILUPBiCGStab:  Solving for ILambda_36_0, Initial residual = 1, Final residual = 2.67727640217e-61, No Iterations 48
DILUPBiCGStab:  Solving for ILambda_37_0, Initial residual = 1, Final residual = 5.12344332915e-61, No Iterations 74
DILUPBiCGStab:  Solving for ILambda_38_0, Initial residual = 1, Final residual = 3.89991410026e-61, No Iterations 90
DILUPBiCGStab:  Solving for ILambda_39_0, Initial residual = 1, Final residual = 6.54309186259e-61, No Iterations 105
DILUPBiCGStab:  Solving for ILambda_40_0, Initial residual = 1, Final residual = 2.5497482611e-62, No Iterations 116
DILUPBiCGStab:  Solving for ILambda_41_0, Initial residual = 1, Final residual = 8.55949475966e-61, No Iterations 119
DILUPBiCGStab:  Solving for ILambda_42_0, Initial residual = 1, Final residual = 4.24879534864e-61, No Iterations 118
DILUPBiCGStab:  Solving for ILambda_43_0, Initial residual = 1, Final residual = 6.17068221475e-62, No Iterations 117
DILUPBiCGStab:  Solving for ILambda_44_0, Initial residual = 1, Final residual = 5.73132933017e-61, No Iterations 108
DILUPBiCGStab:  Solving for ILambda_45_0, Initial residual = 1, Final residual = 8.13971911921e-61, No Iterations 92
DILUPBiCGStab:  Solving for ILambda_46_0, Initial residual = 1, Final residual = 5.49384894824e-61, No Iterations 74
DILUPBiCGStab:  Solving for ILambda_47_0, Initial residual = 1, Final residual = 7.81940133247e-61, No Iterations 47
DILUPBiCGStab:  Solving for ILambda_48_0, Initial residual = 1, Final residual = 1.84269664261e-61, No Iterations 2
DILUPBiCGStab:  Solving for ILambda_49_0, Initial residual = 1, Final residual = 1.1615616157e-61, No Iterations 2
DILUPBiCGStab:  Solving for ILambda_50_0, Initial residual = 1, Final residual = 1.05346970471e-61, No Iterations 2
DILUPBiCGStab:  Solving for ILambda_51_0, Initial residual = 1, Final residual = 1.42338206106e-61, No Iterations 2
DILUPBiCGStab:  Solving for ILambda_52_0, Initial residual = 1, Final residual = 1.07297414999e-61, No Iterations 2
DILUPBiCGStab:  Solving for ILambda_53_0, Initial residual = 1, Final residual = 1.92569542407e-61, No Iterations 2
DILUPBiCGStab:  Solving for ILambda_54_0, Initial residual = 1, Final residual = 2.39087109206e-61, No Iterations 2
DILUPBiCGStab:  Solving for ILambda_55_0, Initial residual = 1, Final residual = 1.70112791668e-61, No Iterations 2
DILUPBiCGStab:  Solving for ILambda_56_0, Initial residual = 1, Final residual = 1.32194570716e-61, No Iterations 2
DILUPBiCGStab:  Solving for ILambda_57_0, Initial residual = 1, Final residual = 1.01863633147e-61, No Iterations 2
DILUPBiCGStab:  Solving for ILambda_58_0, Initial residual = 1, Final residual = 1.0054395526e-61, No Iterations 2
DILUPBiCGStab:  Solving for ILambda_59_0, Initial residual = 1, Final residual = 1.51340082462e-61, No Iterations 2
DILUPBiCGStab:  Solving for ILambda_60_0, Initial residual = 1, Final residual = 2.5096281945e-61, No Iterations 55
DILUPBiCGStab:  Solving for ILambda_61_0, Initial residual = 1, Final residual = 5.24912985328e-61, No Iterations 89
DILUPBiCGStab:  Solving for ILambda_62_0, Initial residual = 1, Final residual = 3.49678692837e-61, No Iterations 109
DILUPBiCGStab:  Solving for ILambda_63_0, Initial residual = 1, Final residual = 7.09611956579e-61, No Iterations 124
DILUPBiCGStab:  Solving for ILambda_64_0, Initial residual = 1, Final residual = 4.81175909925e-61, No Iterations 130
DILUPBiCGStab:  Solving for ILambda_65_0, Initial residual = 1, Final residual = 9.96379188264e-61, No Iterations 130
DILUPBiCGStab:  Solving for ILambda_66_0, Initial residual = 1, Final residual = 3.94680990613e-61, No Iterations 129
DILUPBiCGStab:  Solving for ILambda_67_0, Initial residual = 1, Final residual = 7.79603488194e-61, No Iterations 134
DILUPBiCGStab:  Solving for ILambda_68_0, Initial residual = 1, Final residual = 4.48596695601e-61, No Iterations 124
DILUPBiCGStab:  Solving for ILambda_69_0, Initial residual = 1, Final residual = 6.77419327825e-61, No Iterations 109
DILUPBiCGStab:  Solving for ILambda_70_0, Initial residual = 1, Final residual = 9.03343403982e-61, No Iterations 89
DILUPBiCGStab:  Solving for ILambda_71_0, Initial residual = 1, Final residual = 6.96898727313e-61, No Iterations 61
DILUPBiCGStab:  Solving for ILambda_72_0, Initial residual = 1, Final residual = 2.36337996301e-61, No Iterations 47
DILUPBiCGStab:  Solving for ILambda_73_0, Initial residual = 1, Final residual = 5.67263653181e-61, No Iterations 49
DILUPBiCGStab:  Solving for ILambda_74_0, Initial residual = 1, Final residual = 8.85999998545e-61, No Iterations 50
DILUPBiCGStab:  Solving for ILambda_75_0, Initial residual = 1, Final residual = 2.05291350975e-61, No Iterations 53
DILUPBiCGStab:  Solving for ILambda_76_0, Initial residual = 1, Final residual = 1.14650742368e-61, No Iterations 53
DILUPBiCGStab:  Solving for ILambda_77_0, Initial residual = 1, Final residual = 8.3967122484e-62, No Iterations 53
DILUPBiCGStab:  Solving for ILambda_78_0, Initial residual = 1, Final residual = 1.02994016341e-61, No Iterations 53
DILUPBiCGStab:  Solving for ILambda_79_0, Initial residual = 1, Final residual = 2.26582648137e-61, No Iterations 53
DILUPBiCGStab:  Solving for ILambda_80_0, Initial residual = 1, Final residual = 3.45421540282e-61, No Iterations 53
DILUPBiCGStab:  Solving for ILambda_81_0, Initial residual = 1, Final residual = 2.34225821805e-61, No Iterations 50
DILUPBiCGStab:  Solving for ILambda_82_0, Initial residual = 1, Final residual = 1.6041421556e-61, No Iterations 49
DILUPBiCGStab:  Solving for ILambda_83_0, Initial residual = 1, Final residual = 9.21629557805e-61, No Iterations 48
DILUPBiCGStab:  Solving for ILambda_84_0, Initial residual = 1, Final residual = 5.12000200673e-61, No Iterations 61
DILUPBiCGStab:  Solving for ILambda_85_0, Initial residual = 1, Final residual = 5.75206794389e-61, No Iterations 89
DILUPBiCGStab:  Solving for ILambda_86_0, Initial residual = 1, Final residual = 8.06135713326e-61, No Iterations 110
DILUPBiCGStab:  Solving for ILambda_87_0, Initial residual = 1, Final residual = 5.49236846148e-61, No Iterations 125
DILUPBiCGStab:  Solving for ILambda_88_0, Initial residual = 1, Final residual = 9.38716004068e-61, No Iterations 135
DILUPBiCGStab:  Solving for ILambda_89_0, Initial residual = 1, Final residual = 1.27771265066e-61, No Iterations 131
DILUPBiCGStab:  Solving for ILambda_90_0, Initial residual = 1, Final residual = 4.68086459838e-61, No Iterations 129
DILUPBiCGStab:  Solving for ILambda_91_0, Initial residual = 1, Final residual = 5.77717249982e-62, No Iterations 131
DILUPBiCGStab:  Solving for ILambda_92_0, Initial residual = 1, Final residual = 6.58495680873e-61, No Iterations 124
DILUPBiCGStab:  Solving for ILambda_93_0, Initial residual = 1, Final residual = 4.15263774884e-61, No Iterations 110
DILUPBiCGStab:  Solving for ILambda_94_0, Initial residual = 1, Final residual = 3.06591495394e-61, No Iterations 88
DILUPBiCGStab:  Solving for ILambda_95_0, Initial residual = 1, Final residual = 2.82827180207e-61, No Iterations 55
DILUPBiCGStab:  Solving for ILambda_96_0, Initial residual = 1, Final residual = 1.51019503655e-75, No Iterations 3
DILUPBiCGStab:  Solving for ILambda_97_0, Initial residual = 1, Final residual = 2.25776751301e-61, No Iterations 2
DILUPBiCGStab:  Solving for ILambda_98_0, Initial residual = 1, Final residual = 2.37497071436e-61, No Iterations 2
DILUPBiCGStab:  Solving for ILambda_99_0, Initial residual = 1, Final residual = 2.96135283786e-61, No Iterations 2
DILUPBiCGStab:  Solving for ILambda_100_0, Initial residual = 1, Final residual = 2.49967488371e-61, No Iterations 2
DILUPBiCGStab:  Solving for ILambda_101_0, Initial residual = 1, Final residual = 1.74188446667e-61, No Iterations 2
DILUPBiCGStab:  Solving for ILambda_102_0, Initial residual = 1, Final residual = 2.67297338519e-61, No Iterations 2
DILUPBiCGStab:  Solving for ILambda_103_0, Initial residual = 1, Final residual = 2.07219755629e-61, No Iterations 2
DILUPBiCGStab:  Solving for ILambda_104_0, Initial residual = 1, Final residual = 5.15247645916e-61, No Iterations 2
DILUPBiCGStab:  Solving for ILambda_105_0, Initial residual = 1, Final residual = 2.46377979816e-61, No Iterations 2
DILUPBiCGStab:  Solving for ILambda_106_0, Initial residual = 1, Final residual = 2.16034413814e-61, No Iterations 2
DILUPBiCGStab:  Solving for ILambda_107_0, Initial residual = 1, Final residual = 1.43253278045e-75, No Iterations 3
DILUPBiCGStab:  Solving for ILambda_108_0, Initial residual = 1, Final residual = 1.81925852641e-61, No Iterations 59
DILUPBiCGStab:  Solving for ILambda_109_0, Initial residual = 1, Final residual = 4.476646103e-61, No Iterations 93
DILUPBiCGStab:  Solving for ILambda_110_0, Initial residual = 1, Final residual = 9.94500635024e-61, No Iterations 116
DILUPBiCGStab:  Solving for ILambda_111_0, Initial residual = 1, Final residual = 3.15089284136e-61, No Iterations 134
DILUPBiCGStab:  Solving for ILambda_112_0, Initial residual = 1, Final residual = 4.01141593899e-61, No Iterations 140
DILUPBiCGStab:  Solving for ILambda_113_0, Initial residual = 1, Final residual = 3.26060383483e-61, No Iterations 142
DILUPBiCGStab:  Solving for ILambda_114_0, Initial residual = 1, Final residual = 3.88871127453e-61, No Iterations 141
DILUPBiCGStab:  Solving for ILambda_115_0, Initial residual = 1, Final residual = 5.30151009325e-61, No Iterations 145
DILUPBiCGStab:  Solving for ILambda_116_0, Initial residual = 1, Final residual = 9.96829020444e-61, No Iterations 132
DILUPBiCGStab:  Solving for ILambda_117_0, Initial residual = 1, Final residual = 7.50840785151e-61, No Iterations 114
DILUPBiCGStab:  Solving for ILambda_118_0, Initial residual = 1, Final residual = 4.97722712963e-61, No Iterations 95
DILUPBiCGStab:  Solving for ILambda_119_0, Initial residual = 1, Final residual = 2.89772342524e-61, No Iterations 68
DILUPBiCGStab:  Solving for ILambda_120_0, Initial residual = 1, Final residual = 2.76799053547e-61, No Iterations 51
DILUPBiCGStab:  Solving for ILambda_121_0, Initial residual = 1, Final residual = 7.47165240532e-61, No Iterations 53
DILUPBiCGStab:  Solving for ILambda_122_0, Initial residual = 1, Final residual = 4.85548810329e-62, No Iterations 55
DILUPBiCGStab:  Solving for ILambda_123_0, Initial residual = 1, Final residual = 1.35403397468e-61, No Iterations 56
DILUPBiCGStab:  Solving for ILambda_124_0, Initial residual = 1, Final residual = 3.87916004121e-61, No Iterations 60
DILUPBiCGStab:  Solving for ILambda_125_0, Initial residual = 1, Final residual = 5.72754866576e-61, No Iterations 58
DILUPBiCGStab:  Solving for ILambda_126_0, Initial residual = 1, Final residual = 6.15566287776e-62, No Iterations 59
DILUPBiCGStab:  Solving for ILambda_127_0, Initial residual = 1, Final residual = 3.44043403674e-61, No Iterations 58
DILUPBiCGStab:  Solving for ILambda_128_0, Initial residual = 1, Final residual = 2.50229089964e-61, No Iterations 58
DILUPBiCGStab:  Solving for ILambda_129_0, Initial residual = 1, Final residual = 8.28150822026e-62, No Iterations 56
DILUPBiCGStab:  Solving for ILambda_130_0, Initial residual = 1, Final residual = 2.38409231113e-61, No Iterations 54
DILUPBiCGStab:  Solving for ILambda_131_0, Initial residual = 1, Final residual = 6.34202558234e-61, No Iterations 50
DILUPBiCGStab:  Solving for ILambda_132_0, Initial residual = 1, Final residual = 9.47648366852e-61, No Iterations 67
DILUPBiCGStab:  Solving for ILambda_133_0, Initial residual = 1, Final residual = 4.39470408799e-61, No Iterations 95
DILUPBiCGStab:  Solving for ILambda_134_0, Initial residual = 1, Final residual = 5.53005151945e-61, No Iterations 114
DILUPBiCGStab:  Solving for ILambda_135_0, Initial residual = 1, Final residual = 3.69775002494e-61, No Iterations 133
DILUPBiCGStab:  Solving for ILambda_136_0, Initial residual = 1, Final residual = 3.89635329857e-61, No Iterations 143
DILUPBiCGStab:  Solving for ILambda_137_0, Initial residual = 1, Final residual = 3.23566336243e-61, No Iterations 142
DILUPBiCGStab:  Solving for ILambda_138_0, Initial residual = 1, Final residual = 7.30900734219e-61, No Iterations 142
DILUPBiCGStab:  Solving for ILambda_139_0, Initial residual = 1, Final residual = 8.12562837314e-61, No Iterations 140
DILUPBiCGStab:  Solving for ILambda_140_0, Initial residual = 1, Final residual = 8.16961462803e-61, No Iterations 134
DILUPBiCGStab:  Solving for ILambda_141_0, Initial residual = 1, Final residual = 7.08967990779e-61, No Iterations 116
DILUPBiCGStab:  Solving for ILambda_142_0, Initial residual = 1, Final residual = 3.85765812139e-61, No Iterations 93
DILUPBiCGStab:  Solving for ILambda_143_0, Initial residual = 1, Final residual = 8.97193407735e-61, No Iterations 59
DILUPBiCGStab:  Solving for ILambda_144_0, Initial residual = 1, Final residual = 6.71131016956e-62, No Iterations 49
DILUPBiCGStab:  Solving for ILambda_145_0, Initial residual = 1, Final residual = 4.67725872443e-61, No Iterations 50
DILUPBiCGStab:  Solving for ILambda_146_0, Initial residual = 1, Final residual = 8.58231465802e-61, No Iterations 51
DILUPBiCGStab:  Solving for ILambda_147_0, Initial residual = 1, Final residual = 1.07537703597e-61, No Iterations 51
DILUPBiCGStab:  Solving for ILambda_148_0, Initial residual = 1, Final residual = 1.48164588651e-61, No Iterations 52
DILUPBiCGStab:  Solving for ILambda_149_0, Initial residual = 1, Final residual = 9.88923130454e-61, No Iterations 51
DILUPBiCGStab:  Solving for ILambda_150_0, Initial residual = 1, Final residual = 9.79796495297e-61, No Iterations 51
DILUPBiCGStab:  Solving for ILambda_151_0, Initial residual = 1, Final residual = 6.40988696116e-61, No Iterations 52
DILUPBiCGStab:  Solving for ILambda_152_0, Initial residual = 1, Final residual = 5.32017063656e-62, No Iterations 51
DILUPBiCGStab:  Solving for ILambda_153_0, Initial residual = 1, Final residual = 1.09429363027e-61, No Iterations 50
DILUPBiCGStab:  Solving for ILambda_154_0, Initial residual = 1, Final residual = 3.20484629047e-61, No Iterations 50
DILUPBiCGStab:  Solving for ILambda_155_0, Initial residual = 1, Final residual = 5.39086380064e-61, No Iterations 49
DILUPBiCGStab:  Solving for ILambda_156_0, Initial residual = 1, Final residual = 6.48093473134e-61, No Iterations 67
DILUPBiCGStab:  Solving for ILambda_157_0, Initial residual = 1, Final residual = 4.87334275199e-61, No Iterations 94
DILUPBiCGStab:  Solving for ILambda_158_0, Initial residual = 1, Final residual = 6.3969344931e-61, No Iterations 113
DILUPBiCGStab:  Solving for ILambda_159_0, Initial residual = 1, Final residual = 7.15668880074e-61, No Iterations 132
DILUPBiCGStab:  Solving for ILambda_160_0, Initial residual = 1, Final residual = 8.97722986179e-61, No Iterations 142
DILUPBiCGStab:  Solving for ILambda_161_0, Initial residual = 1, Final residual = 2.99276856807e-61, No Iterations 140
DILUPBiCGStab:  Solving for ILambda_162_0, Initial residual = 1, Final residual = 6.480654537e-61, No Iterations 140
DILUPBiCGStab:  Solving for ILambda_163_0, Initial residual = 1, Final residual = 5.2131411785e-61, No Iterations 138
DILUPBiCGStab:  Solving for ILambda_164_0, Initial residual = 1, Final residual = 3.58278342455e-61, No Iterations 130
DILUPBiCGStab:  Solving for ILambda_165_0, Initial residual = 1, Final residual = 4.81009725185e-61, No Iterations 116
DILUPBiCGStab:  Solving for ILambda_166_0, Initial residual = 1, Final residual = 4.88518262912e-61, No Iterations 92
DILUPBiCGStab:  Solving for ILambda_167_0, Initial residual = 1, Final residual = 5.35765197791e-61, No Iterations 59
DILUPBiCGStab:  Solving for ILambda_168_0, Initial residual = 1, Final residual = 1.27921492079e-75, No Iterations 3
DILUPBiCGStab:  Solving for ILambda_169_0, Initial residual = 1, Final residual = 4.29100566228e-61, No Iterations 2
DILUPBiCGStab:  Solving for ILambda_170_0, Initial residual = 1, Final residual = 9.72628785408e-76, No Iterations 3
DILUPBiCGStab:  Solving for ILambda_171_0, Initial residual = 1, Final residual = 9.14635618748e-61, No Iterations 2
DILUPBiCGStab:  Solving for ILambda_172_0, Initial residual = 1, Final residual = 4.26771785847e-61, No Iterations 2
DILUPBiCGStab:  Solving for ILambda_173_0, Initial residual = 1, Final residual = 1.65135937348e-75, No Iterations 3
DILUPBiCGStab:  Solving for ILambda_174_0, Initial residual = 1, Final residual = 1.9512818002e-75, No Iterations 3
DILUPBiCGStab:  Solving for ILambda_175_0, Initial residual = 1, Final residual = 3.79930284063e-61, No Iterations 2
DILUPBiCGStab:  Solving for ILambda_176_0, Initial residual = 1, Final residual = 5.36870431748e-61, No Iterations 2
DILUPBiCGStab:  Solving for ILambda_177_0, Initial residual = 1, Final residual = 2.13527561054e-61, No Iterations 2
DILUPBiCGStab:  Solving for ILambda_178_0, Initial residual = 1, Final residual = 2.59985155497e-61, No Iterations 2
DILUPBiCGStab:  Solving for ILambda_179_0, Initial residual = 1, Final residual = 9.02183966966e-61, No Iterations 2
DILUPBiCGStab:  Solving for ILambda_180_0, Initial residual = 1, Final residual = 9.04295735945e-61, No Iterations 59
DILUPBiCGStab:  Solving for ILambda_181_0, Initial residual = 1, Final residual = 2.52875239836e-61, No Iterations 93
DILUPBiCGStab:  Solving for ILambda_182_0, Initial residual = 1, Final residual = 5.93143014979e-61, No Iterations 115
DILUPBiCGStab:  Solving for ILambda_183_0, Initial residual = 1, Final residual = 2.89717224463e-61, No Iterations 132
DILUPBiCGStab:  Solving for ILambda_184_0, Initial residual = 1, Final residual = 8.09907234042e-61, No Iterations 139
DILUPBiCGStab:  Solving for ILambda_185_0, Initial residual = 1, Final residual = 5.7427923851e-61, No Iterations 141
DILUPBiCGStab:  Solving for ILambda_186_0, Initial residual = 1, Final residual = 4.09346567373e-61, No Iterations 139
DILUPBiCGStab:  Solving for ILambda_187_0, Initial residual = 1, Final residual = 7.10222306874e-61, No Iterations 144
DILUPBiCGStab:  Solving for ILambda_188_0, Initial residual = 1, Final residual = 3.21057255747e-61, No Iterations 133
DILUPBiCGStab:  Solving for ILambda_189_0, Initial residual = 1, Final residual = 8.00847529477e-61, No Iterations 114
DILUPBiCGStab:  Solving for ILambda_190_0, Initial residual = 1, Final residual = 2.78537972062e-61, No Iterations 93
DILUPBiCGStab:  Solving for ILambda_191_0, Initial residual = 1, Final residual = 9.15745562057e-61, No Iterations 67
DILUPBiCGStab:  Solving for ILambda_192_0, Initial residual = 1, Final residual = 4.38166534358e-61, No Iterations 45
DILUPBiCGStab:  Solving for ILambda_193_0, Initial residual = 1, Final residual = 3.24406847241e-61, No Iterations 46
DILUPBiCGStab:  Solving for ILambda_194_0, Initial residual = 1, Final residual = 9.40116313416e-61, No Iterations 48
DILUPBiCGStab:  Solving for ILambda_195_0, Initial residual = 1, Final residual = 6.03491428335e-62, No Iterations 49
DILUPBiCGStab:  Solving for ILambda_196_0, Initial residual = 1, Final residual = 9.48239715254e-61, No Iterations 49
DILUPBiCGStab:  Solving for ILambda_197_0, Initial residual = 1, Final residual = 9.56604754231e-61, No Iterations 50
DILUPBiCGStab:  Solving for ILambda_198_0, Initial residual = 1, Final residual = 6.09809435065e-61, No Iterations 50
DILUPBiCGStab:  Solving for ILambda_199_0, Initial residual = 1, Final residual = 3.67865882895e-61, No Iterations 49
DILUPBiCGStab:  Solving for ILambda_200_0, Initial residual = 1, Final residual = 1.43693841229e-61, No Iterations 49
DILUPBiCGStab:  Solving for ILambda_201_0, Initial residual = 1, Final residual = 1.92444565106e-61, No Iterations 49
DILUPBiCGStab:  Solving for ILambda_202_0, Initial residual = 1, Final residual = 2.82190165101e-61, No Iterations 47
DILUPBiCGStab:  Solving for ILambda_203_0, Initial residual = 1, Final residual = 1.94358000788e-61, No Iterations 45
DILUPBiCGStab:  Solving for ILambda_204_0, Initial residual = 1, Final residual = 9.13073243176e-61, No Iterations 61
DILUPBiCGStab:  Solving for ILambda_205_0, Initial residual = 1, Final residual = 2.95890538223e-61, No Iterations 88
DILUPBiCGStab:  Solving for ILambda_206_0, Initial residual = 1, Final residual = 5.49346477511e-61, No Iterations 107
DILUPBiCGStab:  Solving for ILambda_207_0, Initial residual = 1, Final residual = 9.83016896992e-61, No Iterations 124
DILUPBiCGStab:  Solving for ILambda_208_0, Initial residual = 1, Final residual = 5.33429915741e-61, No Iterations 135
DILUPBiCGStab:  Solving for ILambda_209_0, Initial residual = 1, Final residual = 4.18135666079e-61, No Iterations 130
DILUPBiCGStab:  Solving for ILambda_210_0, Initial residual = 1, Final residual = 6.38525745643e-62, No Iterations 129
DILUPBiCGStab:  Solving for ILambda_211_0, Initial residual = 1, Final residual = 9.11247404551e-61, No Iterations 129
DILUPBiCGStab:  Solving for ILambda_212_0, Initial residual = 1, Final residual = 5.59897041833e-61, No Iterations 123
DILUPBiCGStab:  Solving for ILambda_213_0, Initial residual = 1, Final residual = 3.36936246251e-62, No Iterations 111
DILUPBiCGStab:  Solving for ILambda_214_0, Initial residual = 1, Final residual = 8.80465740066e-61, No Iterations 88
DILUPBiCGStab:  Solving for ILambda_215_0, Initial residual = 1, Final residual = 3.87639630133e-61, No Iterations 56
DILUPBiCGStab:  Solving for ILambda_216_0, Initial residual = 1, Final residual = 2.25970075267e-61, No Iterations 2
DILUPBiCGStab:  Solving for ILambda_217_0, Initial residual = 1, Final residual = 1.58220443328e-61, No Iterations 2
DILUPBiCGStab:  Solving for ILambda_218_0, Initial residual = 1, Final residual = 1.68844574949e-75, No Iterations 3
DILUPBiCGStab:  Solving for ILambda_219_0, Initial residual = 1, Final residual = 4.25764462738e-75, No Iterations 3
DILUPBiCGStab:  Solving for ILambda_220_0, Initial residual = 1, Final residual = 9.42007433638e-76, No Iterations 3
DILUPBiCGStab:  Solving for ILambda_221_0, Initial residual = 1, Final residual = 2.10872443784e-61, No Iterations 2
DILUPBiCGStab:  Solving for ILambda_222_0, Initial residual = 1, Final residual = 1.34883463705e-61, No Iterations 2
DILUPBiCGStab:  Solving for ILambda_223_0, Initial residual = 1, Final residual = 1.82199641606e-61, No Iterations 2
DILUPBiCGStab:  Solving for ILambda_224_0, Initial residual = 1, Final residual = 1.62548114569e-61, No Iterations 2
DILUPBiCGStab:  Solving for ILambda_225_0, Initial residual = 1, Final residual = 1.56176917731e-61, No Iterations 2
DILUPBiCGStab:  Solving for ILambda_226_0, Initial residual = 1, Final residual = 8.04609824479e-62, No Iterations 2
DILUPBiCGStab:  Solving for ILambda_227_0, Initial residual = 1, Final residual = 1.8378018794e-61, No Iterations 2
DILUPBiCGStab:  Solving for ILambda_228_0, Initial residual = 1, Final residual = 2.54723842512e-61, No Iterations 56
DILUPBiCGStab:  Solving for ILambda_229_0, Initial residual = 1, Final residual = 7.3043243042e-61, No Iterations 89
DILUPBiCGStab:  Solving for ILambda_230_0, Initial residual = 1, Final residual = 7.71419535966e-61, No Iterations 109
DILUPBiCGStab:  Solving for ILambda_231_0, Initial residual = 1, Final residual = 3.63001107918e-61, No Iterations 124
DILUPBiCGStab:  Solving for ILambda_232_0, Initial residual = 1, Final residual = 7.8698366183e-61, No Iterations 129
DILUPBiCGStab:  Solving for ILambda_233_0, Initial residual = 1, Final residual = 5.21592430506e-61, No Iterations 128
DILUPBiCGStab:  Solving for ILambda_234_0, Initial residual = 1, Final residual = 6.16641233952e-61, No Iterations 129
DILUPBiCGStab:  Solving for ILambda_235_0, Initial residual = 1, Final residual = 3.24810650602e-61, No Iterations 135
DILUPBiCGStab:  Solving for ILambda_236_0, Initial residual = 1, Final residual = 3.86172322583e-61, No Iterations 125
DILUPBiCGStab:  Solving for ILambda_237_0, Initial residual = 1, Final residual = 4.78405968823e-61, No Iterations 108
DILUPBiCGStab:  Solving for ILambda_238_0, Initial residual = 1, Final residual = 4.26522278293e-61, No Iterations 88
DILUPBiCGStab:  Solving for ILambda_239_0, Initial residual = 1, Final residual = 3.81099390834e-61, No Iterations 61
DILUPBiCGStab:  Solving for ILambda_240_0, Initial residual = 1, Final residual = 6.14550673497e-61, No Iterations 38
DILUPBiCGStab:  Solving for ILambda_241_0, Initial residual = 1, Final residual = 2.04878042758e-61, No Iterations 38
DILUPBiCGStab:  Solving for ILambda_242_0, Initial residual = 1, Final residual = 1.07665191419e-61, No Iterations 39
DILUPBiCGStab:  Solving for ILambda_243_0, Initial residual = 1, Final residual = 1.11186105565e-61, No Iterations 39
DILUPBiCGStab:  Solving for ILambda_244_0, Initial residual = 1, Final residual = 1.13330740264e-61, No Iterations 39
DILUPBiCGStab:  Solving for ILambda_245_0, Initial residual = 1, Final residual = 2.19813015923e-61, No Iterations 39
DILUPBiCGStab:  Solving for ILambda_246_0, Initial residual = 1, Final residual = 1.61799603551e-61, No Iterations 39
DILUPBiCGStab:  Solving for ILambda_247_0, Initial residual = 1, Final residual = 1.42368654771e-62, No Iterations 39
DILUPBiCGStab:  Solving for ILambda_248_0, Initial residual = 1, Final residual = 1.53083397584e-61, No Iterations 39
DILUPBiCGStab:  Solving for ILambda_249_0, Initial residual = 1, Final residual = 7.58001522729e-61, No Iterations 38
DILUPBiCGStab:  Solving for ILambda_250_0, Initial residual = 1, Final residual = 3.84998109114e-61, No Iterations 38
DILUPBiCGStab:  Solving for ILambda_251_0, Initial residual = 1, Final residual = 4.30995333323e-61, No Iterations 38
DILUPBiCGStab:  Solving for ILambda_252_0, Initial residual = 1, Final residual = 3.4613300138e-61, No Iterations 50
DILUPBiCGStab:  Solving for ILambda_253_0, Initial residual = 1, Final residual = 7.19362792647e-61, No Iterations 74
DILUPBiCGStab:  Solving for ILambda_254_0, Initial residual = 1, Final residual = 4.05240909805e-61, No Iterations 91
DILUPBiCGStab:  Solving for ILambda_255_0, Initial residual = 1, Final residual = 9.77509705459e-61, No Iterations 107
DILUPBiCGStab:  Solving for ILambda_256_0, Initial residual = 1, Final residual = 5.48586506812e-61, No Iterations 115
DILUPBiCGStab:  Solving for ILambda_257_0, Initial residual = 1, Final residual = 4.3419067454e-61, No Iterations 118
DILUPBiCGStab:  Solving for ILambda_258_0, Initial residual = 1, Final residual = 1.94762858391e-61, No Iterations 121
DILUPBiCGStab:  Solving for ILambda_259_0, Initial residual = 1, Final residual = 2.33934856488e-61, No Iterations 117
DILUPBiCGStab:  Solving for ILambda_260_0, Initial residual = 1, Final residual = 7.64818849769e-63, No Iterations 109
DILUPBiCGStab:  Solving for ILambda_261_0, Initial residual = 1, Final residual = 6.00223642364e-61, No Iterations 92
DILUPBiCGStab:  Solving for ILambda_262_0, Initial residual = 1, Final residual = 5.63581486449e-61, No Iterations 75
DILUPBiCGStab:  Solving for ILambda_263_0, Initial residual = 1, Final residual = 7.63593124567e-62, No Iterations 47
DILUPBiCGStab:  Solving for ILambda_264_0, Initial residual = 1, Final residual = 8.1307862029e-62, No Iterations 2
DILUPBiCGStab:  Solving for ILambda_265_0, Initial residual = 1, Final residual = 8.2631324105e-62, No Iterations 2
DILUPBiCGStab:  Solving for ILambda_266_0, Initial residual = 1, Final residual = 4.40381517888e-62, No Iterations 2
DILUPBiCGStab:  Solving for ILambda_267_0, Initial residual = 1, Final residual = 3.83083576319e-73, No Iterations 3
DILUPBiCGStab:  Solving for ILambda_268_0, Initial residual = 1, Final residual = 2.96671562697e-74, No Iterations 3
DILUPBiCGStab:  Solving for ILambda_269_0, Initial residual = 1, Final residual = 2.09066560341e-74, No Iterations 3
DILUPBiCGStab:  Solving for ILambda_270_0, Initial residual = 1, Final residual = 3.8068406201e-74, No Iterations 3
DILUPBiCGStab:  Solving for ILambda_271_0, Initial residual = 1, Final residual = 4.55257965406e-62, No Iterations 2
DILUPBiCGStab:  Solving for ILambda_272_0, Initial residual = 1, Final residual = 6.35277117961e-62, No Iterations 2
DILUPBiCGStab:  Solving for ILambda_273_0, Initial residual = 1, Final residual = 4.62810137624e-62, No Iterations 2
DILUPBiCGStab:  Solving for ILambda_274_0, Initial residual = 1, Final residual = 5.97150280132e-62, No Iterations 2
DILUPBiCGStab:  Solving for ILambda_275_0, Initial residual = 1, Final residual = 5.09345115192e-62, No Iterations 2
DILUPBiCGStab:  Solving for ILambda_276_0, Initial residual = 1, Final residual = 1.84311785055e-61, No Iterations 47
DILUPBiCGStab:  Solving for ILambda_277_0, Initial residual = 1, Final residual = 3.02194235922e-61, No Iterations 75
DILUPBiCGStab:  Solving for ILambda_278_0, Initial residual = 1, Final residual = 5.71986481826e-61, No Iterations 93
DILUPBiCGStab:  Solving for ILambda_279_0, Initial residual = 1, Final residual = 4.16818390152e-61, No Iterations 108
DILUPBiCGStab:  Solving for ILambda_280_0, Initial residual = 1, Final residual = 9.31878388849e-61, No Iterations 116
DILUPBiCGStab:  Solving for ILambda_281_0, Initial residual = 1, Final residual = 1.21899148814e-61, No Iterations 120
DILUPBiCGStab:  Solving for ILambda_282_0, Initial residual = 1, Final residual = 6.64111343246e-61, No Iterations 118
DILUPBiCGStab:  Solving for ILambda_283_0, Initial residual = 1, Final residual = 1.12763424611e-61, No Iterations 117
DILUPBiCGStab:  Solving for ILambda_284_0, Initial residual = 1, Final residual = 5.60990350278e-61, No Iterations 106
[...]
DILUPBiCGStab:  Solving for ILambda_140_0, Initial residual = 3.43903015579e-15, Final residual = 6.00576290731e-61, No Iterations 104
DILUPBiCGStab:  Solving for ILambda_141_0, Initial residual = 2.56185843604e-15, Final residual = 7.84410187591e-61, No Iterations 88
DILUPBiCGStab:  Solving for ILambda_142_0, Initial residual = 2.39796743202e-15, Final residual = 6.88110220945e-61, No Iterations 72
DILUPBiCGStab:  Solving for ILambda_143_0, Initial residual = 2.50110058037e-15, Final residual = 2.25193743451e-61, No Iterations 46
DILUPBiCGStab:  Solving for ILambda_144_0, Initial residual = 2.26836699782e-15, Final residual = 1.81099389262e-61, No Iterations 37
DILUPBiCGStab:  Solving for ILambda_145_0, Initial residual = 2.09718400078e-15, Final residual = 7.84779447279e-62, No Iterations 38
DILUPBiCGStab:  Solving for ILambda_146_0, Initial residual = 2.45083559243e-15, Final residual = 8.62647107668e-62, No Iterations 37
DILUPBiCGStab:  Solving for ILambda_147_0, Initial residual = 2.62521806199e-15, Final residual = 5.94389462613e-61, No Iterations 35
DILUPBiCGStab:  Solving for ILambda_148_0, Initial residual = 3.02543944205e-15, Final residual = 3.25813492595e-61, No Iterations 37
DILUPBiCGStab:  Solving for ILambda_149_0, Initial residual = 2.99658415147e-15, Final residual = 3.12972290811e-61, No Iterations 39
DILUPBiCGStab:  Solving for ILambda_150_0, Initial residual = 3.07005309081e-15, Final residual = 5.27751927648e-61, No Iterations 36
DILUPBiCGStab:  Solving for ILambda_151_0, Initial residual = 3.352629229e-15, Final residual = 1.29931366263e-61, No Iterations 37
DILUPBiCGStab:  Solving for ILambda_152_0, Initial residual = 3.21428964591e-15, Final residual = 8.39905547537e-61, No Iterations 37
DILUPBiCGStab:  Solving for ILambda_153_0, Initial residual = 3.06593265459e-15, Final residual = 1.65658226912e-61, No Iterations 36
DILUPBiCGStab:  Solving for ILambda_154_0, Initial residual = 2.43604230224e-15, Final residual = 6.23815356755e-62, No Iterations 37
DILUPBiCGStab:  Solving for ILambda_155_0, Initial residual = 2.479859652e-15, Final residual = 4.46352411844e-61, No Iterations 36
DILUPBiCGStab:  Solving for ILambda_156_0, Initial residual = 2.76804659425e-15, Final residual = 4.89762723428e-61, No Iterations 52
DILUPBiCGStab:  Solving for ILambda_157_0, Initial residual = 2.02162864845e-15, Final residual = 5.80313216347e-61, No Iterations 74
DILUPBiCGStab:  Solving for ILambda_158_0, Initial residual = 2.34168271939e-15, Final residual = 6.51344029545e-61, No Iterations 88
DILUPBiCGStab:  Solving for ILambda_159_0, Initial residual = 3.15674298991e-15, Final residual = 4.98885242007e-61, No Iterations 97
DILUPBiCGStab:  Solving for ILambda_160_0, Initial residual = 3.6365176608e-15, Final residual = 2.71083495928e-61, No Iterations 109
DILUPBiCGStab:  Solving for ILambda_161_0, Initial residual = 3.65551679145e-15, Final residual = 9.33750502166e-61, No Iterations 115
DILUPBiCGStab:  Solving for ILambda_162_0, Initial residual = 3.98362257081e-15, Final residual = 5.59143100135e-61, No Iterations 115
DILUPBiCGStab:  Solving for ILambda_163_0, Initial residual = 3.71889133126e-15, Final residual = 7.43054102193e-61, No Iterations 110
DILUPBiCGStab:  Solving for ILambda_164_0, Initial residual = 3.53041104251e-15, Final residual = 6.68219194001e-61, No Iterations 102
DILUPBiCGStab:  Solving for ILambda_165_0, Initial residual = 2.79578831543e-15, Final residual = 4.48821890421e-61, No Iterations 88
DILUPBiCGStab:  Solving for ILambda_166_0, Initial residual = 2.54885876252e-15, Final residual = 6.4632568193e-61, No Iterations 70
DILUPBiCGStab:  Solving for ILambda_167_0, Initial residual = 2.50334148585e-15, Final residual = 3.25773152077e-61, No Iterations 45
DILUPBiCGStab:  Solving for ILambda_168_0, Initial residual = 2.48629964207e-15, Final residual = 2.53807562676e-61, No Iterations 2
DILUPBiCGStab:  Solving for ILambda_169_0, Initial residual = 2.57787402673e-15, Final residual = 1.54741743296e-61, No Iterations 2
DILUPBiCGStab:  Solving for ILambda_170_0, Initial residual = 2.63640130193e-15, Final residual = 9.63683224774e-62, No Iterations 2
DILUPBiCGStab:  Solving for ILambda_171_0, Initial residual = 3.09578386066e-15, Final residual = 1.05045458714e-61, No Iterations 2
DILUPBiCGStab:  Solving for ILambda_172_0, Initial residual = 3.24934426504e-15, Final residual = 2.2584820356e-61, No Iterations 2
DILUPBiCGStab:  Solving for ILambda_173_0, Initial residual = 2.99221451331e-15, Final residual = 1.97719573826e-61, No Iterations 2
DILUPBiCGStab:  Solving for ILambda_174_0, Initial residual = 2.80074864506e-15, Final residual = 1.28651499969e-61, No Iterations 2
DILUPBiCGStab:  Solving for ILambda_175_0, Initial residual = 2.85135537748e-15, Final residual = 2.03784048657e-61, No Iterations 2
DILUPBiCGStab:  Solving for ILambda_176_0, Initial residual = 2.6028330991e-15, Final residual = 1.80387285257e-61, No Iterations 2
DILUPBiCGStab:  Solving for ILambda_177_0, Initial residual = 2.23032297513e-15, Final residual = 9.4050989048e-62, No Iterations 2
DILUPBiCGStab:  Solving for ILambda_178_0, Initial residual = 2.21119599304e-15, Final residual = 1.14928366287e-61, No Iterations 2
DILUPBiCGStab:  Solving for ILambda_179_0, Initial residual = 2.27182102599e-15, Final residual = 1.5225755595e-61, No Iterations 2
DILUPBiCGStab:  Solving for ILambda_180_0, Initial residual = 2.48527593833e-15, Final residual = 4.27455114225e-61, No Iterations 44
DILUPBiCGStab:  Solving for ILambda_181_0, Initial residual = 2.59837869404e-15, Final residual = 4.29334820083e-61, No Iterations 71
DILUPBiCGStab:  Solving for ILambda_182_0, Initial residual = 2.60924402623e-15, Final residual = 5.7525753138e-61, No Iterations 87
DILUPBiCGStab:  Solving for ILambda_183_0, Initial residual = 3.31930334478e-15, Final residual = 9.6217217059e-61, No Iterations 100
DILUPBiCGStab:  Solving for ILambda_184_0, Initial residual = 3.85316121079e-15, Final residual = 9.61889926677e-61, No Iterations 111
DILUPBiCGStab:  Solving for ILambda_185_0, Initial residual = 3.53636180645e-15, Final residual = 3.0852775049e-61, No Iterations 116
DILUPBiCGStab:  Solving for ILambda_186_0, Initial residual = 3.32429758117e-15, Final residual = 2.25707652381e-61, No Iterations 119
DILUPBiCGStab:  Solving for ILambda_187_0, Initial residual = 3.75390911184e-15, Final residual = 6.17590613152e-61, No Iterations 108
DILUPBiCGStab:  Solving for ILambda_188_0, Initial residual = 3.02436130904e-15, Final residual = 6.44663231158e-61, No Iterations 99
DILUPBiCGStab:  Solving for ILambda_189_0, Initial residual = 2.47516267338e-15, Final residual = 6.92598237848e-61, No Iterations 88
DILUPBiCGStab:  Solving for ILambda_190_0, Initial residual = 2.07780909144e-15, Final residual = 5.51556505552e-61, No Iterations 74
DILUPBiCGStab:  Solving for ILambda_191_0, Initial residual = 2.23286088341e-15, Final residual = 8.76188887725e-61, No Iterations 53
DILUPBiCGStab:  Solving for ILambda_192_0, Initial residual = 7.50971330552e-16, Final residual = 2.34767317348e-61, No Iterations 31
DILUPBiCGStab:  Solving for ILambda_193_0, Initial residual = 7.85224169513e-16, Final residual = 7.93052665848e-62, No Iterations 33
DILUPBiCGStab:  Solving for ILambda_194_0, Initial residual = 7.50774709581e-16, Final residual = 4.52171185105e-61, No Iterations 31
DILUPBiCGStab:  Solving for ILambda_195_0, Initial residual = 7.55723885667e-16, Final residual = 4.81651548947e-61, No Iterations 33
DILUPBiCGStab:  Solving for ILambda_196_0, Initial residual = 8.40852544158e-16, Final residual = 1.46505494308e-61, No Iterations 35
DILUPBiCGStab:  Solving for ILambda_197_0, Initial residual = 7.42208854859e-16, Final residual = 6.31767814337e-61, No Iterations 34
DILUPBiCGStab:  Solving for ILambda_198_0, Initial residual = 8.25217512265e-16, Final residual = 5.48604391194e-62, No Iterations 33
DILUPBiCGStab:  Solving for ILambda_199_0, Initial residual = 8.74002648587e-16, Final residual = 2.13399270827e-61, No Iterations 33
DILUPBiCGStab:  Solving for ILambda_200_0, Initial residual = 8.56912239105e-16, Final residual = 2.74769269665e-61, No Iterations 35
DILUPBiCGStab:  Solving for ILambda_201_0, Initial residual = 9.68229217509e-16, Final residual = 1.87259796768e-61, No Iterations 32
DILUPBiCGStab:  Solving for ILambda_202_0, Initial residual = 8.43402307058e-16, Final residual = 9.89906152945e-62, No Iterations 34
DILUPBiCGStab:  Solving for ILambda_203_0, Initial residual = 7.82677593338e-16, Final residual = 1.90549059089e-61, No Iterations 33
DILUPBiCGStab:  Solving for ILambda_204_0, Initial residual = 7.7967671756e-16, Final residual = 3.51839876123e-61, No Iterations 48
DILUPBiCGStab:  Solving for ILambda_205_0, Initial residual = 8.06185303397e-16, Final residual = 4.11762639214e-62, No Iterations 68
DILUPBiCGStab:  Solving for ILambda_206_0, Initial residual = 8.11071573519e-16, Final residual = 5.2013364314e-61, No Iterations 81
DILUPBiCGStab:  Solving for ILambda_207_0, Initial residual = 7.87078333946e-16, Final residual = 4.75545961158e-61, No Iterations 92
DILUPBiCGStab:  Solving for ILambda_208_0, Initial residual = 8.47352572132e-16, Final residual = 6.18949311132e-61, No Iterations 101
DILUPBiCGStab:  Solving for ILambda_209_0, Initial residual = 8.89719579327e-16, Final residual = 5.10937987396e-61, No Iterations 109
DILUPBiCGStab:  Solving for ILambda_210_0, Initial residual = 9.13378403915e-16, Final residual = 1.4284286911e-61, No Iterations 110
DILUPBiCGStab:  Solving for ILambda_211_0, Initial residual = 8.7062452823e-16, Final residual = 4.07300200828e-61, No Iterations 108
DILUPBiCGStab:  Solving for ILambda_212_0, Initial residual = 1.15216561793e-15, Final residual = 8.85319393866e-61, No Iterations 94
DILUPBiCGStab:  Solving for ILambda_213_0, Initial residual = 9.18614512775e-16, Final residual = 2.61750007843e-61, No Iterations 82
DILUPBiCGStab:  Solving for ILambda_214_0, Initial residual = 8.7570314911e-16, Final residual = 6.82628726279e-61, No Iterations 67
DILUPBiCGStab:  Solving for ILambda_215_0, Initial residual = 7.99830653845e-16, Final residual = 2.94182136866e-61, No Iterations 42
DILUPBiCGStab:  Solving for ILambda_216_0, Initial residual = 7.93326355658e-16, Final residual = 2.81683859658e-62, No Iterations 2
DILUPBiCGStab:  Solving for ILambda_217_0, Initial residual = 8.69313891718e-16, Final residual = 1.69854542002e-62, No Iterations 2
DILUPBiCGStab:  Solving for ILambda_218_0, Initial residual = 9.12521174724e-16, Final residual = 3.19518669325e-62, No Iterations 2
DILUPBiCGStab:  Solving for ILambda_219_0, Initial residual = 9.10335718296e-16, Final residual = 2.21342615447e-62, No Iterations 2
DILUPBiCGStab:  Solving for ILambda_220_0, Initial residual = 9.22886509668e-16, Final residual = 1.96148043275e-62, No Iterations 2
DILUPBiCGStab:  Solving for ILambda_221_0, Initial residual = 8.86156246477e-16, Final residual = 2.3603195619e-62, No Iterations 2
DILUPBiCGStab:  Solving for ILambda_222_0, Initial residual = 7.68217953323e-16, Final residual = 2.21994907915e-62, No Iterations 2
DILUPBiCGStab:  Solving for ILambda_223_0, Initial residual = 8.36393422737e-16, Final residual = 3.01090067317e-62, No Iterations 2
DILUPBiCGStab:  Solving for ILambda_224_0, Initial residual = 8.15540510055e-16, Final residual = 1.79248133463e-62, No Iterations 2
DILUPBiCGStab:  Solving for ILambda_225_0, Initial residual = 8.25218914425e-16, Final residual = 2.93104604781e-62, No Iterations 2
DILUPBiCGStab:  Solving for ILambda_226_0, Initial residual = 8.14017127741e-16, Final residual = 1.63763606837e-62, No Iterations 2
DILUPBiCGStab:  Solving for ILambda_227_0, Initial residual = 7.54587563047e-16, Final residual = 1.73047228698e-62, No Iterations 2
DILUPBiCGStab:  Solving for ILambda_228_0, Initial residual = 7.81854844519e-16, Final residual = 2.40421552443e-61, No Iterations 43
DILUPBiCGStab:  Solving for ILambda_229_0, Initial residual = 8.79255838296e-16, Final residual = 2.31795146523e-62, No Iterations 67
DILUPBiCGStab:  Solving for ILambda_230_0, Initial residual = 8.83534272375e-16, Final residual = 2.05553916088e-62, No Iterations 83
DILUPBiCGStab:  Solving for ILambda_231_0, Initial residual = 9.09721190128e-16, Final residual = 7.26605270703e-61, No Iterations 96
DILUPBiCGStab:  Solving for ILambda_232_0, Initial residual = 9.79620550632e-16, Final residual = 5.92661305297e-61, No Iterations 108
DILUPBiCGStab:  Solving for ILambda_233_0, Initial residual = 9.9889399463e-16, Final residual = 8.91180983761e-61, No Iterations 108
DILUPBiCGStab:  Solving for ILambda_234_0, Initial residual = 9.5019617459e-16, Final residual = 3.86238462171e-61, No Iterations 107
DILUPBiCGStab:  Solving for ILambda_235_0, Initial residual = 7.66908081625e-16, Final residual = 4.68776140724e-61, No Iterations 104
DILUPBiCGStab:  Solving for ILambda_236_0, Initial residual = 8.18646866451e-16, Final residual = 8.02196823797e-61, No Iterations 94
DILUPBiCGStab:  Solving for ILambda_237_0, Initial residual = 8.94331026232e-16, Final residual = 6.38651372612e-61, No Iterations 81
DILUPBiCGStab:  Solving for ILambda_238_0, Initial residual = 8.00421281571e-16, Final residual = 2.52517696361e-61, No Iterations 68
DILUPBiCGStab:  Solving for ILambda_239_0, Initial residual = 7.49822324763e-16, Final residual = 3.45646338321e-61, No Iterations 47
DILUPBiCGStab:  Solving for ILambda_240_0, Initial residual = 3.45840162348e-16, Final residual = 3.32596881632e-63, No Iterations 26
DILUPBiCGStab:  Solving for ILambda_241_0, Initial residual = 3.55782491333e-16, Final residual = 4.28906347245e-61, No Iterations 26
DILUPBiCGStab:  Solving for ILambda_242_0, Initial residual = 3.75738085816e-16, Final residual = 2.37898007221e-61, No Iterations 28
DILUPBiCGStab:  Solving for ILambda_243_0, Initial residual = 3.98638151035e-16, Final residual = 9.28144146452e-62, No Iterations 27
DILUPBiCGStab:  Solving for ILambda_244_0, Initial residual = 4.0911438403e-16, Final residual = 4.23136174616e-62, No Iterations 28
DILUPBiCGStab:  Solving for ILambda_245_0, Initial residual = 4.10755420254e-16, Final residual = 1.26213667195e-61, No Iterations 27
DILUPBiCGStab:  Solving for ILambda_246_0, Initial residual = 4.09611513226e-16, Final residual = 4.39975923192e-61, No Iterations 26
DILUPBiCGStab:  Solving for ILambda_247_0, Initial residual = 3.99413481377e-16, Final residual = 3.27176685268e-61, No Iterations 27
DILUPBiCGStab:  Solving for ILambda_248_0, Initial residual = 4.19385328161e-16, Final residual = 3.04297013892e-61, No Iterations 26
DILUPBiCGStab:  Solving for ILambda_249_0, Initial residual = 3.91667826094e-16, Final residual = 8.05661660722e-61, No Iterations 27
DILUPBiCGStab:  Solving for ILambda_250_0, Initial residual = 3.74370980527e-16, Final residual = 7.78502833676e-62, No Iterations 26
DILUPBiCGStab:  Solving for ILambda_251_0, Initial residual = 3.56103585806e-16, Final residual = 1.08646592039e-61, No Iterations 26
DILUPBiCGStab:  Solving for ILambda_252_0, Initial residual = 3.49980483738e-16, Final residual = 9.77996084191e-61, No Iterations 37
DILUPBiCGStab:  Solving for ILambda_253_0, Initial residual = 3.53560387561e-16, Final residual = 4.15141908909e-62, No Iterations 59
DILUPBiCGStab:  Solving for ILambda_254_0, Initial residual = 3.70937474879e-16, Final residual = 3.52276388858e-62, No Iterations 71
DILUPBiCGStab:  Solving for ILambda_255_0, Initial residual = 3.99207555168e-16, Final residual = 7.53765188909e-62, No Iterations 82
DILUPBiCGStab:  Solving for ILambda_256_0, Initial residual = 4.07289218801e-16, Final residual = 9.42047741509e-63, No Iterations 88
DILUPBiCGStab:  Solving for ILambda_257_0, Initial residual = 4.11311886281e-16, Final residual = 9.0499388936e-61, No Iterations 93
DILUPBiCGStab:  Solving for ILambda_258_0, Initial residual = 4.2163662234e-16, Final residual = 8.5975256845e-61, No Iterations 94
DILUPBiCGStab:  Solving for ILambda_259_0, Initial residual = 4.24202637541e-16, Final residual = 9.11733032824e-61, No Iterations 89
DILUPBiCGStab:  Solving for ILambda_260_0, Initial residual = 4.14139914062e-16, Final residual = 7.35820490277e-61, No Iterations 80
DILUPBiCGStab:  Solving for ILambda_261_0, Initial residual = 3.94038813687e-16, Final residual = 9.82112183231e-61, No Iterations 72
DILUPBiCGStab:  Solving for ILambda_262_0, Initial residual = 3.77695946301e-16, Final residual = 8.21079168608e-61, No Iterations 58
DILUPBiCGStab:  Solving for ILambda_263_0, Initial residual = 3.57925436841e-16, Final residual = 3.97097636607e-61, No Iterations 37
DILUPBiCGStab:  Solving for ILambda_264_0, Initial residual = 3.58103638538e-16, Final residual = 1.12519822929e-62, No Iterations 2
DILUPBiCGStab:  Solving for ILambda_265_0, Initial residual = 3.79975283665e-16, Final residual = 9.7670336602e-63, No Iterations 2
DILUPBiCGStab:  Solving for ILambda_266_0, Initial residual = 3.93601531198e-16, Final residual = 2.86453036701e-63, No Iterations 2
DILUPBiCGStab:  Solving for ILambda_267_0, Initial residual = 4.20762822176e-16, Final residual = 5.89847727501e-63, No Iterations 2
DILUPBiCGStab:  Solving for ILambda_268_0, Initial residual = 4.01399193844e-16, Final residual = 2.57760420276e-63, No Iterations 2
DILUPBiCGStab:  Solving for ILambda_269_0, Initial residual = 4.1351346754e-16, Final residual = 3.78239230299e-63, No Iterations 2
DILUPBiCGStab:  Solving for ILambda_270_0, Initial residual = 4.15617088854e-16, Final residual = 4.06534837136e-63, No Iterations 2
DILUPBiCGStab:  Solving for ILambda_271_0, Initial residual = 4.10333306578e-16, Final residual = 5.49156519848e-63, No Iterations 2
DILUPBiCGStab:  Solving for ILambda_272_0, Initial residual = 4.00783008578e-16, Final residual = 5.57428603045e-63, No Iterations 2
DILUPBiCGStab:  Solving for ILambda_273_0, Initial residual = 3.74480030278e-16, Final residual = 3.08043816206e-63, No Iterations 2
DILUPBiCGStab:  Solving for ILambda_274_0, Initial residual = 3.57434744831e-16, Final residual = 4.10915351392e-63, No Iterations 2
DILUPBiCGStab:  Solving for ILambda_275_0, Initial residual = 3.5364018317e-16, Final residual = 5.44684139479e-63, No Iterations 2
DILUPBiCGStab:  Solving for ILambda_276_0, Initial residual = 3.68110976726e-16, Final residual = 9.55935722154e-61, No Iterations 36
DILUPBiCGStab:  Solving for ILambda_277_0, Initial residual = 3.79294471604e-16, Final residual = 6.81565375457e-61, No Iterations 59
DILUPBiCGStab:  Solving for ILambda_278_0, Initial residual = 3.97479712539e-16, Final residual = 8.95681491892e-61, No Iterations 72
DILUPBiCGStab:  Solving for ILambda_279_0, Initial residual = 4.14720344266e-16, Final residual = 5.2470552861e-61, No Iterations 81
DILUPBiCGStab:  Solving for ILambda_280_0, Initial residual = 4.11326290281e-16, Final residual = 2.51269364657e-61, No Iterations 90
DILUPBiCGStab:  Solving for ILambda_281_0, Initial residual = 4.10926993561e-16, Final residual = 2.4516181883e-61, No Iterations 92
DILUPBiCGStab:  Solving for ILambda_282_0, Initial residual = 4.10987732551e-16, Final residual = 2.69045531807e-62, No Iterations 95
DILUPBiCGStab:  Solving for ILambda_283_0, Initial residual = 4.11964718891e-16, Final residual = 3.88234069833e-62, No Iterations 90
DILUPBiCGStab:  Solving for ILambda_284_0, Initial residual = 4.10965489206e-16, Final residual = 9.24461229123e-61, No Iterations 80
DILUPBiCGStab:  Solving for ILambda_285_0, Initial residual = 3.77139607743e-16, Final residual = 7.54161657972e-61, No Iterations 70
DILUPBiCGStab:  Solving for ILambda_286_0, Initial residual = 3.53263830875e-16, Final residual = 7.78736895781e-64, No Iterations 59
DILUPBiCGStab:  Solving for ILambda_287_0, Initial residual = 3.47450096129e-16, Final residual = 2.9679086963e-61, No Iterations 39
min/max(T) = 1000, 1000
ExecutionTime = 6812.52 s  ClockTime = 6813 s

writeObjects writeObjects1.writeObjects write:
    writing object a
    writing object qem
End

