/*---------------------------------------------------------------------------*\
| =========                 |                                                 |
| \\      /  F ield         | OpenFOAM: The Open Source CFD Toolbox           |
|  \\    /   O peration     | Version:  2306                                  |
|   \\  /    A nd           | Website:  www.openfoam.com                      |
|    \\/     M anipulation  |                                                 |
\*---------------------------------------------------------------------------*/
Build  : _fbf00d6b-20230626 OPENFOAM=2306 version=2306
Arch   : "LSB;label=32;scalar=64"
Exec   : fireRADFoam_MaCFP
Date   : Mar 12 2024
Time   : 19:27:50
Host   : pop-os
PID    : 172630
I/O    : uncollated
Case   : /home/rafay/Desktop/Study/Radiative_Heat_Transfer/Local_copy_RHT2324/01_Projects/02_Rafay/Case_1_q1D_SolidAngle/new_case3/th_4-ph_8/tau_0.05/res_1
nProcs : 1
trapFpe: Floating point exception trapping enabled (FOAM_SIGFPE).
fileModificationChecking : Monitoring run-time modified files using timeStampMaster (fileModificationSkew 5, maxFileModificationPolls 20)
allowSystemOperations : Allowing user-supplied system call operations

// * * * * * * * * * * * * * * * * * * * * * * * * * * * * * * * * * * * * * //
Create time

Create mesh for time = 0


PIMPLE: no residual control data found. Calculations will employ 10 corrector loops

Reading thermophysical properties

Selecting thermodynamics package 
{
    type            hePsiThermo;
    mixture         singleStepReactingMixture;
    transport       sutherland;
    thermo          janaf;
    energy          sensibleEnthalpy;
    equationOfState perfectGas;
    specie          specie;
}

Selecting chemistryReader foamChemistryReader
    elements not defined in "/home/rafay/Desktop/Study/Radiative_Heat_Transfer/Local_copy_RHT2324/01_Projects/02_Rafay/Case_1_q1D_SolidAngle/new_case3/th_4-ph_8/tau_0.05/res_1/constant/reactions"
Fuel heat of combustion :47168962.4726
stoichiometric air-fuel ratio :14.6914056505
stoichiometric oxygen-fuel ratio :3.42181919285
Maximum products mass concentrations:
    H2O: 0.0818486943001
    CO2: 0.199950099979
    N2: 0.718201205721
Creating component thermo properties:
    multi-component carrier - 6 species
    no liquid components
    no solid components
Creating field rho


Reading field U

Reading/calculating face flux field phi

Selecting radiationModel fvDOM
Selecting absorptionEmissionModel constantAbsorptionEmission
Selecting scatterModel none
Selecting sootModel none
fvDOM : Allocated 128 rays with average orientation:
	I0 : dAve : 	(0.00274192284156 0.0278392098 0.0490873852123) : omega : 	0.0575094490319 : d : 	(0.0375095356919 0.38084070704 0.923879532511)
	I1 : dAve : 	(0.00812039796756 0.0267693645798 0.0490873852123) : omega : 	0.0575094490319 : d : 	(0.111087136655 0.366205212247 0.923879532511)
	I2 : dAve : 	(0.0131868107536 0.0246707876912 0.0490873852123) : omega : 	0.0575094490319 : d : 	(0.180395721254 0.337496656517 0.923879532511)
	I3 : dAve : 	(0.0177464617977 0.0216241262672 0.0490873852123) : omega : 	0.0575094490319 : d : 	(0.242771799453 0.295818293547 0.923879532511)
	I4 : dAve : 	(0.0216241262672 0.0177464617977 0.0490873852123) : omega : 	0.0575094490319 : d : 	(0.295818293547 0.242771799453 0.923879532511)
	I5 : dAve : 	(0.0246707876912 0.0131868107536 0.0490873852123) : omega : 	0.0575094490319 : d : 	(0.337496656517 0.180395721254 0.923879532511)
	I6 : dAve : 	(0.0267693645798 0.00812039796756 0.0490873852123) : omega : 	0.0575094490319 : d : 	(0.366205212247 0.111087136655 0.923879532511)
	I7 : dAve : 	(0.0278392098 0.00274192284156 0.0490873852123) : omega : 	0.0575094490319 : d : 	(0.38084070704 0.0375095356919 0.923879532511)
	I8 : dAve : 	(0.0278392098 -0.00274192284156 0.0490873852123) : omega : 	0.0575094490319 : d : 	(0.38084070704 -0.0375095356919 0.923879532511)
	I9 : dAve : 	(0.0267693645798 -0.00812039796756 0.0490873852123) : omega : 	0.0575094490319 : d : 	(0.366205212247 -0.111087136655 0.923879532511)
	I10 : dAve : 	(0.0246707876912 -0.0131868107536 0.0490873852123) : omega : 	0.0575094490319 : d : 	(0.337496656517 -0.180395721254 0.923879532511)
	I11 : dAve : 	(0.0216241262672 -0.0177464617977 0.0490873852123) : omega : 	0.0575094490319 : d : 	(0.295818293547 -0.242771799453 0.923879532511)
	I12 : dAve : 	(0.0177464617977 -0.0216241262672 0.0490873852123) : omega : 	0.0575094490319 : d : 	(0.242771799453 -0.295818293547 0.923879532511)
	I13 : dAve : 	(0.0131868107536 -0.0246707876912 0.0490873852123) : omega : 	0.0575094490319 : d : 	(0.180395721254 -0.337496656517 0.923879532511)
	I14 : dAve : 	(0.00812039796756 -0.0267693645798 0.0490873852123) : omega : 	0.0575094490319 : d : 	(0.111087136655 -0.366205212247 0.923879532511)
	I15 : dAve : 	(0.00274192284156 -0.0278392098 0.0490873852123) : omega : 	0.0575094490319 : d : 	(0.0375095356919 -0.38084070704 0.923879532511)
	I16 : dAve : 	(-0.00274192284156 -0.0278392098 0.0490873852123) : omega : 	0.0575094490319 : d : 	(-0.0375095356919 -0.38084070704 0.923879532511)
	I17 : dAve : 	(-0.00812039796756 -0.0267693645798 0.0490873852123) : omega : 	0.0575094490319 : d : 	(-0.111087136655 -0.366205212247 0.923879532511)
	I18 : dAve : 	(-0.0131868107536 -0.0246707876912 0.0490873852123) : omega : 	0.0575094490319 : d : 	(-0.180395721254 -0.337496656517 0.923879532511)
	I19 : dAve : 	(-0.0177464617977 -0.0216241262672 0.0490873852123) : omega : 	0.0575094490319 : d : 	(-0.242771799453 -0.295818293547 0.923879532511)
	I20 : dAve : 	(-0.0216241262672 -0.0177464617977 0.0490873852123) : omega : 	0.0575094490319 : d : 	(-0.295818293547 -0.242771799453 0.923879532511)
	I21 : dAve : 	(-0.0246707876912 -0.0131868107536 0.0490873852123) : omega : 	0.0575094490319 : d : 	(-0.337496656517 -0.180395721254 0.923879532511)
	I22 : dAve : 	(-0.0267693645798 -0.00812039796756 0.0490873852123) : omega : 	0.0575094490319 : d : 	(-0.366205212247 -0.111087136655 0.923879532511)
	I23 : dAve : 	(-0.0278392098 -0.00274192284156 0.0490873852123) : omega : 	0.0575094490319 : d : 	(-0.38084070704 -0.0375095356919 0.923879532511)
	I24 : dAve : 	(-0.0278392098 0.00274192284156 0.0490873852123) : omega : 	0.0575094490319 : d : 	(-0.38084070704 0.0375095356919 0.923879532511)
	I25 : dAve : 	(-0.0267693645798 0.00812039796756 0.0490873852123) : omega : 	0.0575094490319 : d : 	(-0.366205212247 0.111087136655 0.923879532511)
	I26 : dAve : 	(-0.0246707876912 0.0131868107536 0.0490873852123) : omega : 	0.0575094490319 : d : 	(-0.337496656517 0.180395721254 0.923879532511)
	I27 : dAve : 	(-0.0216241262672 0.0177464617977 0.0490873852123) : omega : 	0.0575094490319 : d : 	(-0.295818293547 0.242771799453 0.923879532511)
	I28 : dAve : 	(-0.0177464617977 0.0216241262672 0.0490873852123) : omega : 	0.0575094490319 : d : 	(-0.242771799453 0.295818293547 0.923879532511)
	I29 : dAve : 	(-0.0131868107536 0.0246707876912 0.0490873852123) : omega : 	0.0575094490319 : d : 	(-0.180395721254 0.337496656517 0.923879532511)
	I30 : dAve : 	(-0.00812039796756 0.0267693645798 0.0490873852123) : omega : 	0.0575094490319 : d : 	(-0.111087136655 0.366205212247 0.923879532511)
	I31 : dAve : 	(-0.00274192284156 0.0278392098 0.0490873852123) : omega : 	0.0575094490319 : d : 	(-0.0375095356919 0.38084070704 0.923879532511)
	I32 : dAve : 	(0.0123492826399 0.125384370808 0.0490873852123) : omega : 	0.138840091817 : d : 	(0.0905560297858 0.91943080004 0.382683432365)
	I33 : dAve : 	(0.0365732719135 0.120565919754 0.0490873852123) : omega : 	0.138840091817 : d : 	(0.268188071917 0.884097590017 0.382683432365)
	I34 : dAve : 	(0.059391770858 0.111114188018 0.0490873852123) : omega : 	0.138840091817 : d : 	(0.435513796846 0.814789005418 0.382683432365)
	I35 : dAve : 	(0.0799278773557 0.0973924003507 0.0490873852123) : omega : 	0.138840091817 : d : 	(0.586102970801 0.714168536279 0.382683432365)
	I36 : dAve : 	(0.0973924003507 0.0799278773557 0.0490873852123) : omega : 	0.138840091817 : d : 	(0.714168536279 0.586102970801 0.382683432365)
	I37 : dAve : 	(0.111114188018 0.059391770858 0.0490873852123) : omega : 	0.138840091817 : d : 	(0.814789005418 0.435513796846 0.382683432365)
	I38 : dAve : 	(0.120565919754 0.0365732719135 0.0490873852123) : omega : 	0.138840091817 : d : 	(0.884097590017 0.268188071917 0.382683432365)
	I39 : dAve : 	(0.125384370808 0.0123492826399 0.0490873852123) : omega : 	0.138840091817 : d : 	(0.91943080004 0.0905560297858 0.382683432365)
	I40 : dAve : 	(0.125384370808 -0.0123492826399 0.0490873852123) : omega : 	0.138840091817 : d : 	(0.91943080004 -0.0905560297858 0.382683432365)
	I41 : dAve : 	(0.120565919754 -0.0365732719135 0.0490873852123) : omega : 	0.138840091817 : d : 	(0.884097590017 -0.268188071917 0.382683432365)
	I42 : dAve : 	(0.111114188018 -0.059391770858 0.0490873852123) : omega : 	0.138840091817 : d : 	(0.814789005418 -0.435513796846 0.382683432365)
	I43 : dAve : 	(0.0973924003507 -0.0799278773557 0.0490873852123) : omega : 	0.138840091817 : d : 	(0.714168536279 -0.586102970801 0.382683432365)
	I44 : dAve : 	(0.0799278773557 -0.0973924003507 0.0490873852123) : omega : 	0.138840091817 : d : 	(0.586102970801 -0.714168536279 0.382683432365)
	I45 : dAve : 	(0.059391770858 -0.111114188018 0.0490873852123) : omega : 	0.138840091817 : d : 	(0.435513796846 -0.814789005418 0.382683432365)
	I46 : dAve : 	(0.0365732719135 -0.120565919754 0.0490873852123) : omega : 	0.138840091817 : d : 	(0.268188071917 -0.884097590017 0.382683432365)
	I47 : dAve : 	(0.0123492826399 -0.125384370808 0.0490873852123) : omega : 	0.138840091817 : d : 	(0.0905560297858 -0.91943080004 0.382683432365)
	I48 : dAve : 	(-0.0123492826399 -0.125384370808 0.0490873852123) : omega : 	0.138840091817 : d : 	(-0.0905560297858 -0.91943080004 0.382683432365)
	I49 : dAve : 	(-0.0365732719135 -0.120565919754 0.0490873852123) : omega : 	0.138840091817 : d : 	(-0.268188071917 -0.884097590017 0.382683432365)
	I50 : dAve : 	(-0.059391770858 -0.111114188018 0.0490873852123) : omega : 	0.138840091817 : d : 	(-0.435513796846 -0.814789005418 0.382683432365)
	I51 : dAve : 	(-0.0799278773557 -0.0973924003507 0.0490873852123) : omega : 	0.138840091817 : d : 	(-0.586102970801 -0.714168536279 0.382683432365)
	I52 : dAve : 	(-0.0973924003507 -0.0799278773557 0.0490873852123) : omega : 	0.138840091817 : d : 	(-0.714168536279 -0.586102970801 0.382683432365)
	I53 : dAve : 	(-0.111114188018 -0.059391770858 0.0490873852123) : omega : 	0.138840091817 : d : 	(-0.814789005418 -0.435513796846 0.382683432365)
	I54 : dAve : 	(-0.120565919754 -0.0365732719135 0.0490873852123) : omega : 	0.138840091817 : d : 	(-0.884097590017 -0.268188071917 0.382683432365)
	I55 : dAve : 	(-0.125384370808 -0.0123492826399 0.0490873852123) : omega : 	0.138840091817 : d : 	(-0.91943080004 -0.0905560297858 0.382683432365)
	I56 : dAve : 	(-0.125384370808 0.0123492826399 0.0490873852123) : omega : 	0.138840091817 : d : 	(-0.91943080004 0.0905560297858 0.382683432365)
	I57 : dAve : 	(-0.120565919754 0.0365732719135 0.0490873852123) : omega : 	0.138840091817 : d : 	(-0.884097590017 0.268188071917 0.382683432365)
	I58 : dAve : 	(-0.111114188018 0.059391770858 0.0490873852123) : omega : 	0.138840091817 : d : 	(-0.814789005418 0.435513796846 0.382683432365)
	I59 : dAve : 	(-0.0973924003507 0.0799278773557 0.0490873852123) : omega : 	0.138840091817 : d : 	(-0.714168536279 0.586102970801 0.382683432365)
	I60 : dAve : 	(-0.0799278773557 0.0973924003507 0.0490873852123) : omega : 	0.138840091817 : d : 	(-0.586102970801 0.714168536279 0.382683432365)
	I61 : dAve : 	(-0.059391770858 0.111114188018 0.0490873852123) : omega : 	0.138840091817 : d : 	(-0.435513796846 0.814789005418 0.382683432365)
	I62 : dAve : 	(-0.0365732719135 0.120565919754 0.0490873852123) : omega : 	0.138840091817 : d : 	(-0.268188071917 0.884097590017 0.382683432365)
	I63 : dAve : 	(-0.0123492826399 0.125384370808 0.0490873852123) : omega : 	0.138840091817 : d : 	(-0.0905560297858 0.91943080004 0.382683432365)
	I64 : dAve : 	(0.0123492826399 0.125384370808 -0.0490873852123) : omega : 	0.138840091817 : d : 	(0.0905560297858 0.91943080004 -0.382683432365)
	I65 : dAve : 	(0.0365732719135 0.120565919754 -0.0490873852123) : omega : 	0.138840091817 : d : 	(0.268188071917 0.884097590017 -0.382683432365)
	I66 : dAve : 	(0.059391770858 0.111114188018 -0.0490873852123) : omega : 	0.138840091817 : d : 	(0.435513796846 0.814789005418 -0.382683432365)
	I67 : dAve : 	(0.0799278773557 0.0973924003507 -0.0490873852123) : omega : 	0.138840091817 : d : 	(0.586102970801 0.714168536279 -0.382683432365)
	I68 : dAve : 	(0.0973924003507 0.0799278773557 -0.0490873852123) : omega : 	0.138840091817 : d : 	(0.714168536279 0.586102970801 -0.382683432365)
	I69 : dAve : 	(0.111114188018 0.059391770858 -0.0490873852123) : omega : 	0.138840091817 : d : 	(0.814789005418 0.435513796846 -0.382683432365)
	I70 : dAve : 	(0.120565919754 0.0365732719135 -0.0490873852123) : omega : 	0.138840091817 : d : 	(0.884097590017 0.268188071917 -0.382683432365)
	I71 : dAve : 	(0.125384370808 0.0123492826399 -0.0490873852123) : omega : 	0.138840091817 : d : 	(0.91943080004 0.0905560297858 -0.382683432365)
	I72 : dAve : 	(0.125384370808 -0.0123492826399 -0.0490873852123) : omega : 	0.138840091817 : d : 	(0.91943080004 -0.0905560297858 -0.382683432365)
	I73 : dAve : 	(0.120565919754 -0.0365732719135 -0.0490873852123) : omega : 	0.138840091817 : d : 	(0.884097590017 -0.268188071917 -0.382683432365)
	I74 : dAve : 	(0.111114188018 -0.059391770858 -0.0490873852123) : omega : 	0.138840091817 : d : 	(0.814789005418 -0.435513796846 -0.382683432365)
	I75 : dAve : 	(0.0973924003507 -0.0799278773557 -0.0490873852123) : omega : 	0.138840091817 : d : 	(0.714168536279 -0.586102970801 -0.382683432365)
	I76 : dAve : 	(0.0799278773557 -0.0973924003507 -0.0490873852123) : omega : 	0.138840091817 : d : 	(0.586102970801 -0.714168536279 -0.382683432365)
	I77 : dAve : 	(0.059391770858 -0.111114188018 -0.0490873852123) : omega : 	0.138840091817 : d : 	(0.435513796846 -0.814789005418 -0.382683432365)
	I78 : dAve : 	(0.0365732719135 -0.120565919754 -0.0490873852123) : omega : 	0.138840091817 : d : 	(0.268188071917 -0.884097590017 -0.382683432365)
	I79 : dAve : 	(0.0123492826399 -0.125384370808 -0.0490873852123) : omega : 	0.138840091817 : d : 	(0.0905560297858 -0.91943080004 -0.382683432365)
	I80 : dAve : 	(-0.0123492826399 -0.125384370808 -0.0490873852123) : omega : 	0.138840091817 : d : 	(-0.0905560297858 -0.91943080004 -0.382683432365)
	I81 : dAve : 	(-0.0365732719135 -0.120565919754 -0.0490873852123) : omega : 	0.138840091817 : d : 	(-0.268188071917 -0.884097590017 -0.382683432365)
	I82 : dAve : 	(-0.059391770858 -0.111114188018 -0.0490873852123) : omega : 	0.138840091817 : d : 	(-0.435513796846 -0.814789005418 -0.382683432365)
	I83 : dAve : 	(-0.0799278773557 -0.0973924003507 -0.0490873852123) : omega : 	0.138840091817 : d : 	(-0.586102970801 -0.714168536279 -0.382683432365)
	I84 : dAve : 	(-0.0973924003507 -0.0799278773557 -0.0490873852123) : omega : 	0.138840091817 : d : 	(-0.714168536279 -0.586102970801 -0.382683432365)
	I85 : dAve : 	(-0.111114188018 -0.059391770858 -0.0490873852123) : omega : 	0.138840091817 : d : 	(-0.814789005418 -0.435513796846 -0.382683432365)
	I86 : dAve : 	(-0.120565919754 -0.0365732719135 -0.0490873852123) : omega : 	0.138840091817 : d : 	(-0.884097590017 -0.268188071917 -0.382683432365)
	I87 : dAve : 	(-0.125384370808 -0.0123492826399 -0.0490873852123) : omega : 	0.138840091817 : d : 	(-0.91943080004 -0.0905560297858 -0.382683432365)
	I88 : dAve : 	(-0.125384370808 0.0123492826399 -0.0490873852123) : omega : 	0.138840091817 : d : 	(-0.91943080004 0.0905560297858 -0.382683432365)
	I89 : dAve : 	(-0.120565919754 0.0365732719135 -0.0490873852123) : omega : 	0.138840091817 : d : 	(-0.884097590017 0.268188071917 -0.382683432365)
	I90 : dAve : 	(-0.111114188018 0.059391770858 -0.0490873852123) : omega : 	0.138840091817 : d : 	(-0.814789005418 0.435513796846 -0.382683432365)
	I91 : dAve : 	(-0.0973924003507 0.0799278773557 -0.0490873852123) : omega : 	0.138840091817 : d : 	(-0.714168536279 0.586102970801 -0.382683432365)
	I92 : dAve : 	(-0.0799278773557 0.0973924003507 -0.0490873852123) : omega : 	0.138840091817 : d : 	(-0.586102970801 0.714168536279 -0.382683432365)
	I93 : dAve : 	(-0.059391770858 0.111114188018 -0.0490873852123) : omega : 	0.138840091817 : d : 	(-0.435513796846 0.814789005418 -0.382683432365)
	I94 : dAve : 	(-0.0365732719135 0.120565919754 -0.0490873852123) : omega : 	0.138840091817 : d : 	(-0.268188071917 0.884097590017 -0.382683432365)
	I95 : dAve : 	(-0.0123492826399 0.125384370808 -0.0490873852123) : omega : 	0.138840091817 : d : 	(-0.0905560297858 0.91943080004 -0.382683432365)
	I96 : dAve : 	(0.00274192284156 0.0278392098 -0.0490873852123) : omega : 	0.0575094490319 : d : 	(0.0375095356919 0.38084070704 -0.923879532511)
	I97 : dAve : 	(0.00812039796756 0.0267693645798 -0.0490873852123) : omega : 	0.0575094490319 : d : 	(0.111087136655 0.366205212247 -0.923879532511)
	I98 : dAve : 	(0.0131868107536 0.0246707876912 -0.0490873852123) : omega : 	0.0575094490319 : d : 	(0.180395721254 0.337496656517 -0.923879532511)
	I99 : dAve : 	(0.0177464617977 0.0216241262672 -0.0490873852123) : omega : 	0.0575094490319 : d : 	(0.242771799453 0.295818293547 -0.923879532511)
	I100 : dAve : 	(0.0216241262672 0.0177464617977 -0.0490873852123) : omega : 	0.0575094490319 : d : 	(0.295818293547 0.242771799453 -0.923879532511)
	I101 : dAve : 	(0.0246707876912 0.0131868107536 -0.0490873852123) : omega : 	0.0575094490319 : d : 	(0.337496656517 0.180395721254 -0.923879532511)
	I102 : dAve : 	(0.0267693645798 0.00812039796756 -0.0490873852123) : omega : 	0.0575094490319 : d : 	(0.366205212247 0.111087136655 -0.923879532511)
	I103 : dAve : 	(0.0278392098 0.00274192284156 -0.0490873852123) : omega : 	0.0575094490319 : d : 	(0.38084070704 0.0375095356919 -0.923879532511)
	I104 : dAve : 	(0.0278392098 -0.00274192284156 -0.0490873852123) : omega : 	0.0575094490319 : d : 	(0.38084070704 -0.0375095356919 -0.923879532511)
	I105 : dAve : 	(0.0267693645798 -0.00812039796756 -0.0490873852123) : omega : 	0.0575094490319 : d : 	(0.366205212247 -0.111087136655 -0.923879532511)
	I106 : dAve : 	(0.0246707876912 -0.0131868107536 -0.0490873852123) : omega : 	0.0575094490319 : d : 	(0.337496656517 -0.180395721254 -0.923879532511)
	I107 : dAve : 	(0.0216241262672 -0.0177464617977 -0.0490873852123) : omega : 	0.0575094490319 : d : 	(0.295818293547 -0.242771799453 -0.923879532511)
	I108 : dAve : 	(0.0177464617977 -0.0216241262672 -0.0490873852123) : omega : 	0.0575094490319 : d : 	(0.242771799453 -0.295818293547 -0.923879532511)
	I109 : dAve : 	(0.0131868107536 -0.0246707876912 -0.0490873852123) : omega : 	0.0575094490319 : d : 	(0.180395721254 -0.337496656517 -0.923879532511)
	I110 : dAve : 	(0.00812039796756 -0.0267693645798 -0.0490873852123) : omega : 	0.0575094490319 : d : 	(0.111087136655 -0.366205212247 -0.923879532511)
	I111 : dAve : 	(0.00274192284156 -0.0278392098 -0.0490873852123) : omega : 	0.0575094490319 : d : 	(0.0375095356919 -0.38084070704 -0.923879532511)
	I112 : dAve : 	(-0.00274192284156 -0.0278392098 -0.0490873852123) : omega : 	0.0575094490319 : d : 	(-0.0375095356919 -0.38084070704 -0.923879532511)
	I113 : dAve : 	(-0.00812039796756 -0.0267693645798 -0.0490873852123) : omega : 	0.0575094490319 : d : 	(-0.111087136655 -0.366205212247 -0.923879532511)
	I114 : dAve : 	(-0.0131868107536 -0.0246707876912 -0.0490873852123) : omega : 	0.0575094490319 : d : 	(-0.180395721254 -0.337496656517 -0.923879532511)
	I115 : dAve : 	(-0.0177464617977 -0.0216241262672 -0.0490873852123) : omega : 	0.0575094490319 : d : 	(-0.242771799453 -0.295818293547 -0.923879532511)
	I116 : dAve : 	(-0.0216241262672 -0.0177464617977 -0.0490873852123) : omega : 	0.0575094490319 : d : 	(-0.295818293547 -0.242771799453 -0.923879532511)
	I117 : dAve : 	(-0.0246707876912 -0.0131868107536 -0.0490873852123) : omega : 	0.0575094490319 : d : 	(-0.337496656517 -0.180395721254 -0.923879532511)
	I118 : dAve : 	(-0.0267693645798 -0.00812039796756 -0.0490873852123) : omega : 	0.0575094490319 : d : 	(-0.366205212247 -0.111087136655 -0.923879532511)
	I119 : dAve : 	(-0.0278392098 -0.00274192284156 -0.0490873852123) : omega : 	0.0575094490319 : d : 	(-0.38084070704 -0.0375095356919 -0.923879532511)
	I120 : dAve : 	(-0.0278392098 0.00274192284156 -0.0490873852123) : omega : 	0.0575094490319 : d : 	(-0.38084070704 0.0375095356919 -0.923879532511)
	I121 : dAve : 	(-0.0267693645798 0.00812039796756 -0.0490873852123) : omega : 	0.0575094490319 : d : 	(-0.366205212247 0.111087136655 -0.923879532511)
	I122 : dAve : 	(-0.0246707876912 0.0131868107536 -0.0490873852123) : omega : 	0.0575094490319 : d : 	(-0.337496656517 0.180395721254 -0.923879532511)
	I123 : dAve : 	(-0.0216241262672 0.0177464617977 -0.0490873852123) : omega : 	0.0575094490319 : d : 	(-0.295818293547 0.242771799453 -0.923879532511)
	I124 : dAve : 	(-0.0177464617977 0.0216241262672 -0.0490873852123) : omega : 	0.0575094490319 : d : 	(-0.242771799453 0.295818293547 -0.923879532511)
	I125 : dAve : 	(-0.0131868107536 0.0246707876912 -0.0490873852123) : omega : 	0.0575094490319 : d : 	(-0.180395721254 0.337496656517 -0.923879532511)
	I126 : dAve : 	(-0.00812039796756 0.0267693645798 -0.0490873852123) : omega : 	0.0575094490319 : d : 	(-0.111087136655 0.366205212247 -0.923879532511)
	I127 : dAve : 	(-0.00274192284156 0.0278392098 -0.0490873852123) : omega : 	0.0575094490319 : d : 	(-0.0375095356919 0.38084070704 -0.923879532511)
Total omega : 12.5663706144

Courant Number mean: 0 max: 0

Starting time loop

Sampled set:
    data -> csv

Sampled set:
    data -> csv

Sampled surface:
    yNormal -> ensight
        sampledCuttingPlane: yNormal : plane:(0 1 0) (0 0 0) offsets:(0)

Sampled surface:
    zNormal -> ensight
        sampledCuttingPlane: zNormal : plane:(0 0 1) (0 0 0) offsets:(0)

Sampled surface:
    patchAll -> ensight
        sampledPatch: patchAll : patches:(".*WW.*")

deltaT = 1
Time = 1

PIMPLE: iteration 1
Radiation solver iter: 0
DILUPBiCGStab:  Solving for ILambda_0_0, Initial residual = 1, Final residual = 7.76535027532e-61, No Iterations 2
DILUPBiCGStab:  Solving for ILambda_1_0, Initial residual = 1, Final residual = 1.09704931514e-75, No Iterations 3
DILUPBiCGStab:  Solving for ILambda_2_0, Initial residual = 1, Final residual = 1.54086821984e-75, No Iterations 3
DILUPBiCGStab:  Solving for ILambda_3_0, Initial residual = 1, Final residual = 1.9322718528e-61, No Iterations 2
DILUPBiCGStab:  Solving for ILambda_4_0, Initial residual = 1, Final residual = 3.11991700484e-61, No Iterations 2
DILUPBiCGStab:  Solving for ILambda_5_0, Initial residual = 1, Final residual = 2.44176283754e-74, No Iterations 3
DILUPBiCGStab:  Solving for ILambda_6_0, Initial residual = 1, Final residual = 3.18895834533e-75, No Iterations 3
DILUPBiCGStab:  Solving for ILambda_7_0, Initial residual = 1, Final residual = 2.54075754881e-61, No Iterations 2
DILUPBiCGStab:  Solving for ILambda_8_0, Initial residual = 1, Final residual = 8.89578766843e-62, No Iterations 29
DILUPBiCGStab:  Solving for ILambda_9_0, Initial residual = 1, Final residual = 4.41379831049e-62, No Iterations 39
DILUPBiCGStab:  Solving for ILambda_10_0, Initial residual = 1, Final residual = 7.54210817945e-61, No Iterations 41
DILUPBiCGStab:  Solving for ILambda_11_0, Initial residual = 1, Final residual = 2.65581958957e-61, No Iterations 41
DILUPBiCGStab:  Solving for ILambda_12_0, Initial residual = 1, Final residual = 2.19778373688e-61, No Iterations 42
DILUPBiCGStab:  Solving for ILambda_13_0, Initial residual = 1, Final residual = 1.53028853728e-61, No Iterations 39
DILUPBiCGStab:  Solving for ILambda_14_0, Initial residual = 1, Final residual = 2.23644950695e-61, No Iterations 36
DILUPBiCGStab:  Solving for ILambda_15_0, Initial residual = 1, Final residual = 4.09208472795e-61, No Iterations 27
DILUPBiCGStab:  Solving for ILambda_16_0, Initial residual = 1, Final residual = 4.94632450548e-62, No Iterations 16
DILUPBiCGStab:  Solving for ILambda_17_0, Initial residual = 1, Final residual = 1.01742865532e-61, No Iterations 20
DILUPBiCGStab:  Solving for ILambda_18_0, Initial residual = 1, Final residual = 7.78044790576e-62, No Iterations 18
DILUPBiCGStab:  Solving for ILambda_19_0, Initial residual = 1, Final residual = 2.98624231639e-61, No Iterations 17
DILUPBiCGStab:  Solving for ILambda_20_0, Initial residual = 1, Final residual = 1.71648705912e-64, No Iterations 17
DILUPBiCGStab:  Solving for ILambda_21_0, Initial residual = 1, Final residual = 4.0440480001e-61, No Iterations 17
DILUPBiCGStab:  Solving for ILambda_22_0, Initial residual = 1, Final residual = 2.89316540167e-61, No Iterations 18
DILUPBiCGStab:  Solving for ILambda_23_0, Initial residual = 1, Final residual = 2.54998203108e-64, No Iterations 17
DILUPBiCGStab:  Solving for ILambda_24_0, Initial residual = 1, Final residual = 7.03453340377e-62, No Iterations 28
DILUPBiCGStab:  Solving for ILambda_25_0, Initial residual = 1, Final residual = 9.74190520159e-62, No Iterations 37
DILUPBiCGStab:  Solving for ILambda_26_0, Initial residual = 1, Final residual = 4.80381252554e-61, No Iterations 40
DILUPBiCGStab:  Solving for ILambda_27_0, Initial residual = 1, Final residual = 8.25490547071e-62, No Iterations 41
DILUPBiCGStab:  Solving for ILambda_28_0, Initial residual = 1, Final residual = 1.27771958918e-61, No Iterations 41
DILUPBiCGStab:  Solving for ILambda_29_0, Initial residual = 1, Final residual = 2.48283533885e-61, No Iterations 41
DILUPBiCGStab:  Solving for ILambda_30_0, Initial residual = 1, Final residual = 3.09705961059e-61, No Iterations 38
DILUPBiCGStab:  Solving for ILambda_31_0, Initial residual = 1, Final residual = 1.45868570272e-61, No Iterations 29
DILUPBiCGStab:  Solving for ILambda_32_0, Initial residual = 1, Final residual = 1.95514966027e-74, No Iterations 3
DILUPBiCGStab:  Solving for ILambda_33_0, Initial residual = 1, Final residual = 6.39452735867e-72, No Iterations 3
DILUPBiCGStab:  Solving for ILambda_34_0, Initial residual = 1, Final residual = 9.09752855302e-75, No Iterations 3
DILUPBiCGStab:  Solving for ILambda_35_0, Initial residual = 1, Final residual = 5.58777591461e-73, No Iterations 3
DILUPBiCGStab:  Solving for ILambda_36_0, Initial residual = 1, Final residual = 9.4968664227e-73, No Iterations 3
DILUPBiCGStab:  Solving for ILambda_37_0, Initial residual = 1, Final residual = 1.17764935868e-74, No Iterations 3
DILUPBiCGStab:  Solving for ILambda_38_0, Initial residual = 1, Final residual = 1.15866275215e-73, No Iterations 3
DILUPBiCGStab:  Solving for ILambda_39_0, Initial residual = 1, Final residual = 8.14789255052e-75, No Iterations 3
DILUPBiCGStab:  Solving for ILambda_40_0, Initial residual = 1, Final residual = 2.4020405408e-61, No Iterations 30
DILUPBiCGStab:  Solving for ILambda_41_0, Initial residual = 1, Final residual = 2.38285387107e-61, No Iterations 38
DILUPBiCGStab:  Solving for ILambda_42_0, Initial residual = 1, Final residual = 5.67118288191e-62, No Iterations 44
DILUPBiCGStab:  Solving for ILambda_43_0, Initial residual = 1, Final residual = 9.33275713806e-61, No Iterations 42
DILUPBiCGStab:  Solving for ILambda_44_0, Initial residual = 1, Final residual = 8.07799468774e-61, No Iterations 42
DILUPBiCGStab:  Solving for ILambda_45_0, Initial residual = 1, Final residual = 4.78509460536e-61, No Iterations 43
DILUPBiCGStab:  Solving for ILambda_46_0, Initial residual = 1, Final residual = 1.16080229811e-61, No Iterations 37
DILUPBiCGStab:  Solving for ILambda_47_0, Initial residual = 1, Final residual = 6.80196846261e-61, No Iterations 28
DILUPBiCGStab:  Solving for ILambda_48_0, Initial residual = 1, Final residual = 1.03335860396e-61, No Iterations 19
DILUPBiCGStab:  Solving for ILambda_49_0, Initial residual = 1, Final residual = 2.66843373128e-63, No Iterations 15
DILUPBiCGStab:  Solving for ILambda_50_0, Initial residual = 1, Final residual = 5.68276021005e-62, No Iterations 17
DILUPBiCGStab:  Solving for ILambda_51_0, Initial residual = 1, Final residual = 2.25561730687e-61, No Iterations 15
DILUPBiCGStab:  Solving for ILambda_52_0, Initial residual = 1, Final residual = 3.82502099095e-62, No Iterations 20
DILUPBiCGStab:  Solving for ILambda_53_0, Initial residual = 1, Final residual = 7.46180558378e-61, No Iterations 20
DILUPBiCGStab:  Solving for ILambda_54_0, Initial residual = 1, Final residual = 8.14221048313e-61, No Iterations 22
DILUPBiCGStab:  Solving for ILambda_55_0, Initial residual = 1, Final residual = 1.07638667008e-63, No Iterations 22
DILUPBiCGStab:  Solving for ILambda_56_0, Initial residual = 1, Final residual = 3.29265070845e-61, No Iterations 28
DILUPBiCGStab:  Solving for ILambda_57_0, Initial residual = 1, Final residual = 2.58602167068e-61, No Iterations 37
DILUPBiCGStab:  Solving for ILambda_58_0, Initial residual = 1, Final residual = 7.64228482611e-61, No Iterations 42
DILUPBiCGStab:  Solving for ILambda_59_0, Initial residual = 1, Final residual = 4.32322604569e-61, No Iterations 41
DILUPBiCGStab:  Solving for ILambda_60_0, Initial residual = 1, Final residual = 6.2526134429e-61, No Iterations 43
DILUPBiCGStab:  Solving for ILambda_61_0, Initial residual = 1, Final residual = 1.08531402048e-61, No Iterations 42
DILUPBiCGStab:  Solving for ILambda_62_0, Initial residual = 1, Final residual = 9.06115791627e-61, No Iterations 38
DILUPBiCGStab:  Solving for ILambda_63_0, Initial residual = 1, Final residual = 5.56633452696e-62, No Iterations 30
DILUPBiCGStab:  Solving for ILambda_64_0, Initial residual = 1, Final residual = 3.11145206795e-61, No Iterations 14
DILUPBiCGStab:  Solving for ILambda_65_0, Initial residual = 1, Final residual = 6.18341343005e-61, No Iterations 19
DILUPBiCGStab:  Solving for ILambda_66_0, Initial residual = 1, Final residual = 2.05392274763e-63, No Iterations 16
DILUPBiCGStab:  Solving for ILambda_67_0, Initial residual = 1, Final residual = 3.90698273447e-61, No Iterations 17
DILUPBiCGStab:  Solving for ILambda_68_0, Initial residual = 1, Final residual = 4.64945534469e-62, No Iterations 17
DILUPBiCGStab:  Solving for ILambda_69_0, Initial residual = 1, Final residual = 2.25419475151e-62, No Iterations 17
DILUPBiCGStab:  Solving for ILambda_70_0, Initial residual = 1, Final residual = 5.02960319915e-61, No Iterations 16
DILUPBiCGStab:  Solving for ILambda_71_0, Initial residual = 1, Final residual = 1.13159689873e-63, No Iterations 17
DILUPBiCGStab:  Solving for ILambda_72_0, Initial residual = 1, Final residual = 3.26771100063e-61, No Iterations 29
DILUPBiCGStab:  Solving for ILambda_73_0, Initial residual = 1, Final residual = 1.06330951226e-61, No Iterations 39
DILUPBiCGStab:  Solving for ILambda_74_0, Initial residual = 1, Final residual = 9.29393265899e-62, No Iterations 43
DILUPBiCGStab:  Solving for ILambda_75_0, Initial residual = 1, Final residual = 6.0044569703e-61, No Iterations 42
DILUPBiCGStab:  Solving for ILambda_76_0, Initial residual = 1, Final residual = 9.29656019666e-61, No Iterations 44
DILUPBiCGStab:  Solving for ILambda_77_0, Initial residual = 1, Final residual = 7.72712170104e-62, No Iterations 44
DILUPBiCGStab:  Solving for ILambda_78_0, Initial residual = 1, Final residual = 5.0881715332e-61, No Iterations 38
DILUPBiCGStab:  Solving for ILambda_79_0, Initial residual = 1, Final residual = 5.57688341167e-61, No Iterations 30
DILUPBiCGStab:  Solving for ILambda_80_0, Initial residual = 1, Final residual = 3.31926033969e-74, No Iterations 3
DILUPBiCGStab:  Solving for ILambda_81_0, Initial residual = 1, Final residual = 1.29329683896e-74, No Iterations 3
DILUPBiCGStab:  Solving for ILambda_82_0, Initial residual = 1, Final residual = 1.88437837457e-73, No Iterations 3
DILUPBiCGStab:  Solving for ILambda_83_0, Initial residual = 1, Final residual = 2.14123848863e-75, No Iterations 3
DILUPBiCGStab:  Solving for ILambda_84_0, Initial residual = 1, Final residual = 8.290372336e-75, No Iterations 3
DILUPBiCGStab:  Solving for ILambda_85_0, Initial residual = 1, Final residual = 2.92814735699e-74, No Iterations 3
DILUPBiCGStab:  Solving for ILambda_86_0, Initial residual = 1, Final residual = 4.32399831517e-61, No Iterations 2
DILUPBiCGStab:  Solving for ILambda_87_0, Initial residual = 1, Final residual = 1.37356205106e-74, No Iterations 3
DILUPBiCGStab:  Solving for ILambda_88_0, Initial residual = 1, Final residual = 2.80013512352e-62, No Iterations 30
DILUPBiCGStab:  Solving for ILambda_89_0, Initial residual = 1, Final residual = 3.77646134978e-61, No Iterations 38
DILUPBiCGStab:  Solving for ILambda_90_0, Initial residual = 1, Final residual = 4.36111254182e-62, No Iterations 43
DILUPBiCGStab:  Solving for ILambda_91_0, Initial residual = 1, Final residual = 5.00267541483e-61, No Iterations 44
DILUPBiCGStab:  Solving for ILambda_92_0, Initial residual = 1, Final residual = 2.64602130674e-61, No Iterations 44
DILUPBiCGStab:  Solving for ILambda_93_0, Initial residual = 1, Final residual = 5.97051433236e-61, No Iterations 43
DILUPBiCGStab:  Solving for ILambda_94_0, Initial residual = 1, Final residual = 5.91638899721e-61, No Iterations 40
DILUPBiCGStab:  Solving for ILambda_95_0, Initial residual = 1, Final residual = 4.53638257103e-62, No Iterations 29
DILUPBiCGStab:  Solving for ILambda_96_0, Initial residual = 1, Final residual = 1.03146886552e-61, No Iterations 14
DILUPBiCGStab:  Solving for ILambda_97_0, Initial residual = 1, Final residual = 1.5597624279e-61, No Iterations 18
DILUPBiCGStab:  Solving for ILambda_98_0, Initial residual = 1, Final residual = 1.85557144829e-65, No Iterations 14
DILUPBiCGStab:  Solving for ILambda_99_0, Initial residual = 1, Final residual = 3.67348840207e-61, No Iterations 21
DILUPBiCGStab:  Solving for ILambda_100_0, Initial residual = 1, Final residual = 9.8968913727e-62, No Iterations 18
DILUPBiCGStab:  Solving for ILambda_101_0, Initial residual = 1, Final residual = 3.29431070768e-63, No Iterations 18
DILUPBiCGStab:  Solving for ILambda_102_0, Initial residual = 1, Final residual = 5.12077094135e-61, No Iterations 22
DILUPBiCGStab:  Solving for ILambda_103_0, Initial residual = 1, Final residual = 3.97315857843e-61, No Iterations 15
DILUPBiCGStab:  Solving for ILambda_104_0, Initial residual = 1, Final residual = 3.40452683478e-62, No Iterations 29
DILUPBiCGStab:  Solving for ILambda_105_0, Initial residual = 1, Final residual = 8.98262595352e-61, No Iterations 38
DILUPBiCGStab:  Solving for ILambda_106_0, Initial residual = 1, Final residual = 2.80811614229e-61, No Iterations 41
DILUPBiCGStab:  Solving for ILambda_107_0, Initial residual = 1, Final residual = 9.3629122817e-62, No Iterations 42
DILUPBiCGStab:  Solving for ILambda_108_0, Initial residual = 1, Final residual = 4.37431330466e-61, No Iterations 43
DILUPBiCGStab:  Solving for ILambda_109_0, Initial residual = 1, Final residual = 6.16307761114e-62, No Iterations 41
DILUPBiCGStab:  Solving for ILambda_110_0, Initial residual = 1, Final residual = 3.35257637308e-61, No Iterations 38
DILUPBiCGStab:  Solving for ILambda_111_0, Initial residual = 1, Final residual = 1.05216384615e-61, No Iterations 29
DILUPBiCGStab:  Solving for ILambda_112_0, Initial residual = 1, Final residual = 8.77679507881e-61, No Iterations 2
DILUPBiCGStab:  Solving for ILambda_113_0, Initial residual = 1, Final residual = 6.25847931055e-61, No Iterations 2
DILUPBiCGStab:  Solving for ILambda_114_0, Initial residual = 1, Final residual = 5.89820209789e-73, No Iterations 3
DILUPBiCGStab:  Solving for ILambda_115_0, Initial residual = 1, Final residual = 5.50385849477e-75, No Iterations 3
DILUPBiCGStab:  Solving for ILambda_116_0, Initial residual = 1, Final residual = 6.34462746184e-61, No Iterations 2
DILUPBiCGStab:  Solving for ILambda_117_0, Initial residual = 1, Final residual = 4.13557769982e-61, No Iterations 2
DILUPBiCGStab:  Solving for ILambda_118_0, Initial residual = 1, Final residual = 2.51981098825e-61, No Iterations 2
DILUPBiCGStab:  Solving for ILambda_119_0, Initial residual = 1, Final residual = 6.76131397077e-61, No Iterations 2
DILUPBiCGStab:  Solving for ILambda_120_0, Initial residual = 1, Final residual = 3.73201975548e-61, No Iterations 29
DILUPBiCGStab:  Solving for ILambda_121_0, Initial residual = 1, Final residual = 6.43787316928e-62, No Iterations 38
DILUPBiCGStab:  Solving for ILambda_122_0, Initial residual = 1, Final residual = 9.75540815311e-61, No Iterations 42
DILUPBiCGStab:  Solving for ILambda_123_0, Initial residual = 1, Final residual = 8.45017306357e-61, No Iterations 41
DILUPBiCGStab:  Solving for ILambda_124_0, Initial residual = 1, Final residual = 6.21139898815e-62, No Iterations 42
DILUPBiCGStab:  Solving for ILambda_125_0, Initial residual = 1, Final residual = 5.52453199803e-62, No Iterations 42
DILUPBiCGStab:  Solving for ILambda_126_0, Initial residual = 1, Final residual = 7.7599590854e-61, No Iterations 38
DILUPBiCGStab:  Solving for ILambda_127_0, Initial residual = 1, Final residual = 2.38948758035e-61, No Iterations 29
Radiation solver iter: 1
DILUPBiCGStab:  Solving for ILambda_0_0, Initial residual = 3.78341661889e-17, Final residual = 1.62985514627e-63, No Iterations 2
DILUPBiCGStab:  Solving for ILambda_1_0, Initial residual = 4.55040623821e-17, Final residual = 1.517582761e-63, No Iterations 2
DILUPBiCGStab:  Solving for ILambda_2_0, Initial residual = 4.14794403768e-17, Final residual = 1.39807126694e-62, No Iterations 2
DILUPBiCGStab:  Solving for ILambda_3_0, Initial residual = 4.49982652922e-17, Final residual = 5.9954629378e-63, No Iterations 2
DILUPBiCGStab:  Solving for ILambda_4_0, Initial residual = 4.56209939674e-17, Final residual = 2.77908498659e-63, No Iterations 2
DILUPBiCGStab:  Solving for ILambda_5_0, Initial residual = 4.61879761891e-17, Final residual = 1.72464052893e-63, No Iterations 2
DILUPBiCGStab:  Solving for ILambda_6_0, Initial residual = 4.48351049407e-17, Final residual = 2.21714619416e-63, No Iterations 2
DILUPBiCGStab:  Solving for ILambda_7_0, Initial residual = 4.42654033798e-17, Final residual = 3.85319446697e-64, No Iterations 2
DILUPBiCGStab:  Solving for ILambda_8_0, Initial residual = 9.84822285355e-17, Final residual = 9.12123314909e-61, No Iterations 20
DILUPBiCGStab:  Solving for ILambda_9_0, Initial residual = 2.25372033948e-16, Final residual = 1.95620707756e-61, No Iterations 25
DILUPBiCGStab:  Solving for ILambda_10_0, Initial residual = 7.04767059579e-16, Final residual = 1.36014540428e-61, No Iterations 25
DILUPBiCGStab:  Solving for ILambda_11_0, Initial residual = 8.23447179969e-16, Final residual = 1.27568054885e-61, No Iterations 29
DILUPBiCGStab:  Solving for ILambda_12_0, Initial residual = 1.5297547452e-15, Final residual = 5.16408001077e-61, No Iterations 27
DILUPBiCGStab:  Solving for ILambda_13_0, Initial residual = 2.61423673296e-16, Final residual = 3.64251046998e-61, No Iterations 27
DILUPBiCGStab:  Solving for ILambda_14_0, Initial residual = 1.35077735722e-16, Final residual = 2.20512461413e-61, No Iterations 25
DILUPBiCGStab:  Solving for ILambda_15_0, Initial residual = 1.24417926086e-16, Final residual = 4.56063241489e-61, No Iterations 20
DILUPBiCGStab:  Solving for ILambda_16_0, Initial residual = 6.34952104814e-17, Final residual = 1.48891683498e-61, No Iterations 7
DILUPBiCGStab:  Solving for ILambda_17_0, Initial residual = 7.06266775144e-17, Final residual = 1.70720060041e-61, No Iterations 8
DILUPBiCGStab:  Solving for ILambda_18_0, Initial residual = 8.58155465756e-17, Final residual = 5.95330999972e-63, No Iterations 7
DILUPBiCGStab:  Solving for ILambda_19_0, Initial residual = 9.02086390415e-17, Final residual = 5.45885052403e-63, No Iterations 8
DILUPBiCGStab:  Solving for ILambda_20_0, Initial residual = 8.92269575929e-17, Final residual = 2.61906763793e-61, No Iterations 8
DILUPBiCGStab:  Solving for ILambda_21_0, Initial residual = 7.93979060807e-17, Final residual = 3.13459317853e-61, No Iterations 8
DILUPBiCGStab:  Solving for ILambda_22_0, Initial residual = 7.39714647215e-17, Final residual = 1.39574005719e-61, No Iterations 8
DILUPBiCGStab:  Solving for ILambda_23_0, Initial residual = 6.11701754716e-17, Final residual = 2.65788381653e-61, No Iterations 8
DILUPBiCGStab:  Solving for ILambda_24_0, Initial residual = 1.16500570027e-16, Final residual = 2.71399854628e-61, No Iterations 20
DILUPBiCGStab:  Solving for ILambda_25_0, Initial residual = 1.34257854955e-16, Final residual = 1.81385354176e-61, No Iterations 23
DILUPBiCGStab:  Solving for ILambda_26_0, Initial residual = 2.65865713867e-16, Final residual = 7.54569742787e-61, No Iterations 25
DILUPBiCGStab:  Solving for ILambda_27_0, Initial residual = 1.58150377004e-15, Final residual = 8.23216620361e-61, No Iterations 28
DILUPBiCGStab:  Solving for ILambda_28_0, Initial residual = 8.95485194524e-16, Final residual = 1.35927880811e-61, No Iterations 27
DILUPBiCGStab:  Solving for ILambda_29_0, Initial residual = 7.22327192416e-16, Final residual = 7.95085361756e-63, No Iterations 28
DILUPBiCGStab:  Solving for ILambda_30_0, Initial residual = 2.24338685055e-16, Final residual = 7.38011632858e-61, No Iterations 23
DILUPBiCGStab:  Solving for ILambda_31_0, Initial residual = 1.10125079289e-16, Final residual = 1.61405568901e-61, No Iterations 21
DILUPBiCGStab:  Solving for ILambda_32_0, Initial residual = 1.96121461921e-16, Final residual = 9.22235963227e-63, No Iterations 2
DILUPBiCGStab:  Solving for ILambda_33_0, Initial residual = 1.75198866172e-16, Final residual = 1.63319596567e-62, No Iterations 2
DILUPBiCGStab:  Solving for ILambda_34_0, Initial residual = 1.87047027035e-16, Final residual = 1.33361981168e-62, No Iterations 2
DILUPBiCGStab:  Solving for ILambda_35_0, Initial residual = 1.78619794877e-16, Final residual = 1.75843148794e-62, No Iterations 2
DILUPBiCGStab:  Solving for ILambda_36_0, Initial residual = 1.75473519431e-16, Final residual = 3.62450063794e-62, No Iterations 2
DILUPBiCGStab:  Solving for ILambda_37_0, Initial residual = 1.83253548861e-16, Final residual = 3.72880724633e-63, No Iterations 2
DILUPBiCGStab:  Solving for ILambda_38_0, Initial residual = 1.86282892722e-16, Final residual = 1.83313178259e-62, No Iterations 2
DILUPBiCGStab:  Solving for ILambda_39_0, Initial residual = 2.33933873396e-16, Final residual = 2.28359027519e-62, No Iterations 2
DILUPBiCGStab:  Solving for ILambda_40_0, Initial residual = 3.9999847922e-16, Final residual = 2.77493834302e-61, No Iterations 21
DILUPBiCGStab:  Solving for ILambda_41_0, Initial residual = 7.75446764208e-16, Final residual = 6.38871412812e-61, No Iterations 24
DILUPBiCGStab:  Solving for ILambda_42_0, Initial residual = 1.47196470835e-15, Final residual = 2.75033759007e-61, No Iterations 28
DILUPBiCGStab:  Solving for ILambda_43_0, Initial residual = 3.27292594959e-15, Final residual = 6.04469542806e-61, No Iterations 28
DILUPBiCGStab:  Solving for ILambda_44_0, Initial residual = 2.1430133216e-15, Final residual = 2.49901575829e-61, No Iterations 29
DILUPBiCGStab:  Solving for ILambda_45_0, Initial residual = 1.22005056421e-15, Final residual = 2.41536274153e-61, No Iterations 27
DILUPBiCGStab:  Solving for ILambda_46_0, Initial residual = 6.40937370377e-16, Final residual = 2.06814425188e-61, No Iterations 25
DILUPBiCGStab:  Solving for ILambda_47_0, Initial residual = 4.17995065998e-16, Final residual = 2.79972397629e-62, No Iterations 20
DILUPBiCGStab:  Solving for ILambda_48_0, Initial residual = 3.94391201805e-16, Final residual = 3.60851976739e-64, No Iterations 8
DILUPBiCGStab:  Solving for ILambda_49_0, Initial residual = 4.53294808059e-16, Final residual = 2.50612956918e-61, No Iterations 8
DILUPBiCGStab:  Solving for ILambda_50_0, Initial residual = 5.02215720137e-16, Final residual = 2.03458750203e-64, No Iterations 7
DILUPBiCGStab:  Solving for ILambda_51_0, Initial residual = 4.9179521235e-16, Final residual = 5.81601264804e-61, No Iterations 8
DILUPBiCGStab:  Solving for ILambda_52_0, Initial residual = 5.30899309942e-16, Final residual = 1.07665844358e-61, No Iterations 8
DILUPBiCGStab:  Solving for ILambda_53_0, Initial residual = 4.83378857549e-16, Final residual = 8.1206123066e-64, No Iterations 7
DILUPBiCGStab:  Solving for ILambda_54_0, Initial residual = 4.38025718492e-16, Final residual = 1.75771935661e-62, No Iterations 8
DILUPBiCGStab:  Solving for ILambda_55_0, Initial residual = 4.01301042693e-16, Final residual = 5.96825199284e-61, No Iterations 8
DILUPBiCGStab:  Solving for ILambda_56_0, Initial residual = 3.79573522543e-16, Final residual = 2.92696915918e-61, No Iterations 19
DILUPBiCGStab:  Solving for ILambda_57_0, Initial residual = 6.70689660485e-16, Final residual = 8.62426102974e-61, No Iterations 24
DILUPBiCGStab:  Solving for ILambda_58_0, Initial residual = 1.22823849452e-15, Final residual = 1.79246362226e-61, No Iterations 26
DILUPBiCGStab:  Solving for ILambda_59_0, Initial residual = 2.13874123973e-15, Final residual = 4.09849870895e-61, No Iterations 29
DILUPBiCGStab:  Solving for ILambda_60_0, Initial residual = 3.20779233724e-15, Final residual = 2.19253050013e-61, No Iterations 28
DILUPBiCGStab:  Solving for ILambda_61_0, Initial residual = 1.41405909958e-15, Final residual = 2.12558440056e-61, No Iterations 27
DILUPBiCGStab:  Solving for ILambda_62_0, Initial residual = 7.4741309647e-16, Final residual = 2.96964631108e-61, No Iterations 26
DILUPBiCGStab:  Solving for ILambda_63_0, Initial residual = 4.08915192433e-16, Final residual = 8.4520730396e-61, No Iterations 20
DILUPBiCGStab:  Solving for ILambda_64_0, Initial residual = 8.01905934553e-16, Final residual = 1.4718248177e-62, No Iterations 7
DILUPBiCGStab:  Solving for ILambda_65_0, Initial residual = 4.11988045721e-16, Final residual = 3.65996578389e-64, No Iterations 8
DILUPBiCGStab:  Solving for ILambda_66_0, Initial residual = 4.14941248084e-16, Final residual = 8.88247319083e-62, No Iterations 8
DILUPBiCGStab:  Solving for ILambda_67_0, Initial residual = 4.48133502271e-16, Final residual = 6.99668347912e-61, No Iterations 8
DILUPBiCGStab:  Solving for ILambda_68_0, Initial residual = 4.38667482541e-16, Final residual = 5.30142552011e-63, No Iterations 8
DILUPBiCGStab:  Solving for ILambda_69_0, Initial residual = 4.35260150533e-16, Final residual = 4.96638907728e-61, No Iterations 8
DILUPBiCGStab:  Solving for ILambda_70_0, Initial residual = 4.29198743472e-16, Final residual = 2.61564497553e-62, No Iterations 8
DILUPBiCGStab:  Solving for ILambda_71_0, Initial residual = 9.14595350701e-16, Final residual = 4.4555409725e-61, No Iterations 9
DILUPBiCGStab:  Solving for ILambda_72_0, Initial residual = 4.18658584761e-16, Final residual = 2.89235734733e-61, No Iterations 21
DILUPBiCGStab:  Solving for ILambda_73_0, Initial residual = 6.25518717154e-16, Final residual = 7.90143068469e-61, No Iterations 24
DILUPBiCGStab:  Solving for ILambda_74_0, Initial residual = 3.58867930062e-15, Final residual = 2.7428595591e-61, No Iterations 27
DILUPBiCGStab:  Solving for ILambda_75_0, Initial residual = 2.84723515368e-15, Final residual = 1.24154976385e-61, No Iterations 27
DILUPBiCGStab:  Solving for ILambda_76_0, Initial residual = 6.55548923728e-15, Final residual = 7.84629313573e-61, No Iterations 28
DILUPBiCGStab:  Solving for ILambda_77_0, Initial residual = 1.26635547198e-15, Final residual = 1.3640039412e-61, No Iterations 30
DILUPBiCGStab:  Solving for ILambda_78_0, Initial residual = 4.86786189557e-16, Final residual = 1.35382076649e-61, No Iterations 25
DILUPBiCGStab:  Solving for ILambda_79_0, Initial residual = 4.36728593697e-16, Final residual = 3.70041133268e-61, No Iterations 21
DILUPBiCGStab:  Solving for ILambda_80_0, Initial residual = 2.13487162006e-16, Final residual = 1.48800520426e-62, No Iterations 2
DILUPBiCGStab:  Solving for ILambda_81_0, Initial residual = 1.97421306055e-16, Final residual = 9.21258301146e-62, No Iterations 2
DILUPBiCGStab:  Solving for ILambda_82_0, Initial residual = 2.06289071163e-16, Final residual = 1.33150405344e-62, No Iterations 2
DILUPBiCGStab:  Solving for ILambda_83_0, Initial residual = 1.95651016241e-16, Final residual = 1.15598457105e-62, No Iterations 2
DILUPBiCGStab:  Solving for ILambda_84_0, Initial residual = 1.81844931159e-16, Final residual = 7.87509259406e-63, No Iterations 2
DILUPBiCGStab:  Solving for ILambda_85_0, Initial residual = 1.612269014e-16, Final residual = 4.62677453342e-63, No Iterations 2
DILUPBiCGStab:  Solving for ILambda_86_0, Initial residual = 1.72770496273e-16, Final residual = 1.32825195213e-62, No Iterations 2
DILUPBiCGStab:  Solving for ILambda_87_0, Initial residual = 2.07939710053e-16, Final residual = 9.26695267418e-63, No Iterations 2
DILUPBiCGStab:  Solving for ILambda_88_0, Initial residual = 4.45449514488e-16, Final residual = 2.97718374645e-61, No Iterations 21
DILUPBiCGStab:  Solving for ILambda_89_0, Initial residual = 4.58926559527e-16, Final residual = 5.27208943246e-61, No Iterations 26
DILUPBiCGStab:  Solving for ILambda_90_0, Initial residual = 1.20709019361e-15, Final residual = 9.15803373408e-61, No Iterations 28
DILUPBiCGStab:  Solving for ILambda_91_0, Initial residual = 6.19786350136e-15, Final residual = 8.68582476691e-61, No Iterations 29
DILUPBiCGStab:  Solving for ILambda_92_0, Initial residual = 2.84601417038e-15, Final residual = 2.82118005211e-61, No Iterations 30
DILUPBiCGStab:  Solving for ILambda_93_0, Initial residual = 3.39097790262e-15, Final residual = 9.77554487036e-61, No Iterations 29
DILUPBiCGStab:  Solving for ILambda_94_0, Initial residual = 6.32722246676e-16, Final residual = 1.13711172148e-61, No Iterations 27
DILUPBiCGStab:  Solving for ILambda_95_0, Initial residual = 4.08839050936e-16, Final residual = 6.66474611537e-65, No Iterations 22
DILUPBiCGStab:  Solving for ILambda_96_0, Initial residual = 1.42339731036e-16, Final residual = 2.23983128379e-61, No Iterations 9
DILUPBiCGStab:  Solving for ILambda_97_0, Initial residual = 8.84641829493e-17, Final residual = 3.21075822071e-62, No Iterations 8
DILUPBiCGStab:  Solving for ILambda_98_0, Initial residual = 9.58050391002e-17, Final residual = 1.2590960063e-63, No Iterations 8
DILUPBiCGStab:  Solving for ILambda_99_0, Initial residual = 8.78400946046e-17, Final residual = 7.19930281561e-63, No Iterations 8
DILUPBiCGStab:  Solving for ILambda_100_0, Initial residual = 9.3700270565e-17, Final residual = 4.01808176806e-62, No Iterations 9
DILUPBiCGStab:  Solving for ILambda_101_0, Initial residual = 1.00391204649e-16, Final residual = 1.03786315879e-62, No Iterations 9
DILUPBiCGStab:  Solving for ILambda_102_0, Initial residual = 9.50055533775e-17, Final residual = 2.14885399221e-61, No Iterations 8
DILUPBiCGStab:  Solving for ILambda_103_0, Initial residual = 1.51604519666e-16, Final residual = 7.24320751888e-64, No Iterations 8
DILUPBiCGStab:  Solving for ILambda_104_0, Initial residual = 8.97966591538e-17, Final residual = 1.64706963324e-61, No Iterations 20
DILUPBiCGStab:  Solving for ILambda_105_0, Initial residual = 1.1749992718e-16, Final residual = 3.53970091194e-61, No Iterations 24
DILUPBiCGStab:  Solving for ILambda_106_0, Initial residual = 3.53920636268e-16, Final residual = 1.0381802053e-61, No Iterations 27
DILUPBiCGStab:  Solving for ILambda_107_0, Initial residual = 4.1788629243e-15, Final residual = 1.2221681659e-61, No Iterations 27
DILUPBiCGStab:  Solving for ILambda_108_0, Initial residual = 4.93700109455e-16, Final residual = 2.97839042218e-61, No Iterations 28
DILUPBiCGStab:  Solving for ILambda_109_0, Initial residual = 2.01250135639e-16, Final residual = 6.87981731135e-61, No Iterations 27
DILUPBiCGStab:  Solving for ILambda_110_0, Initial residual = 1.08866025243e-16, Final residual = 2.05982063604e-61, No Iterations 26
DILUPBiCGStab:  Solving for ILambda_111_0, Initial residual = 1.13614127441e-15, Final residual = 3.93609092113e-62, No Iterations 21
DILUPBiCGStab:  Solving for ILambda_112_0, Initial residual = 3.84188241153e-17, Final residual = 2.74313520735e-63, No Iterations 2
DILUPBiCGStab:  Solving for ILambda_113_0, Initial residual = 4.60424915422e-17, Final residual = 2.48571124336e-63, No Iterations 2
DILUPBiCGStab:  Solving for ILambda_114_0, Initial residual = 4.58385411028e-17, Final residual = 1.11077042115e-62, No Iterations 2
DILUPBiCGStab:  Solving for ILambda_115_0, Initial residual = 4.36902631405e-17, Final residual = 2.99306288482e-63, No Iterations 2
DILUPBiCGStab:  Solving for ILambda_116_0, Initial residual = 4.86258637754e-17, Final residual = 3.71146039984e-63, No Iterations 2
DILUPBiCGStab:  Solving for ILambda_117_0, Initial residual = 4.37664046379e-17, Final residual = 4.24335769652e-63, No Iterations 2
DILUPBiCGStab:  Solving for ILambda_118_0, Initial residual = 4.55394137916e-17, Final residual = 7.271228344e-63, No Iterations 2
DILUPBiCGStab:  Solving for ILambda_119_0, Initial residual = 4.15406255086e-17, Final residual = 2.51627712256e-63, No Iterations 2
DILUPBiCGStab:  Solving for ILambda_120_0, Initial residual = 1.12839387705e-15, Final residual = 1.38044959434e-62, No Iterations 20
DILUPBiCGStab:  Solving for ILambda_121_0, Initial residual = 1.0850435313e-16, Final residual = 3.28707822308e-61, No Iterations 25
DILUPBiCGStab:  Solving for ILambda_122_0, Initial residual = 2.15842109747e-16, Final residual = 3.9635122678e-61, No Iterations 29
DILUPBiCGStab:  Solving for ILambda_123_0, Initial residual = 4.85505380797e-16, Final residual = 2.52466502575e-61, No Iterations 28
DILUPBiCGStab:  Solving for ILambda_124_0, Initial residual = 3.74889596751e-15, Final residual = 5.224389359e-62, No Iterations 28
DILUPBiCGStab:  Solving for ILambda_125_0, Initial residual = 3.32323644399e-16, Final residual = 6.63682899233e-61, No Iterations 26
DILUPBiCGStab:  Solving for ILambda_126_0, Initial residual = 1.11045575606e-16, Final residual = 1.39302110738e-61, No Iterations 25
DILUPBiCGStab:  Solving for ILambda_127_0, Initial residual = 9.15587909507e-17, Final residual = 1.18903495269e-61, No Iterations 20
min/max(T) = 1000, 1000
PIMPLE: iteration 2
Radiation solver iter: 0
DILUPBiCGStab:  Solving for ILambda_0_0, Initial residual = 4.18914202645e-17, Final residual = 2.19721615764e-63, No Iterations 2
DILUPBiCGStab:  Solving for ILambda_1_0, Initial residual = 3.92686176131e-17, Final residual = 9.30282219867e-64, No Iterations 2
DILUPBiCGStab:  Solving for ILambda_2_0, Initial residual = 3.78015341186e-17, Final residual = 6.76692653675e-64, No Iterations 2
DILUPBiCGStab:  Solving for ILambda_3_0, Initial residual = 4.29696382544e-17, Final residual = 2.54573915201e-63, No Iterations 2
DILUPBiCGStab:  Solving for ILambda_4_0, Initial residual = 4.70092166253e-17, Final residual = 6.13146688712e-63, No Iterations 2
DILUPBiCGStab:  Solving for ILambda_5_0, Initial residual = 4.37269742196e-17, Final residual = 7.13566523265e-64, No Iterations 2
DILUPBiCGStab:  Solving for ILambda_6_0, Initial residual = 3.91883971069e-17, Final residual = 7.62952501181e-62, No Iterations 2
DILUPBiCGStab:  Solving for ILambda_7_0, Initial residual = 3.80462746459e-17, Final residual = 1.64812256554e-63, No Iterations 2
DILUPBiCGStab:  Solving for ILambda_8_0, Initial residual = 4.24665605038e-17, Final residual = 3.75908064302e-61, No Iterations 20
DILUPBiCGStab:  Solving for ILambda_9_0, Initial residual = 5.20141604095e-17, Final residual = 4.02531377311e-62, No Iterations 26
DILUPBiCGStab:  Solving for ILambda_10_0, Initial residual = 5.50095125304e-17, Final residual = 7.16055575462e-61, No Iterations 28
DILUPBiCGStab:  Solving for ILambda_11_0, Initial residual = 5.84086865213e-17, Final residual = 4.66951709937e-61, No Iterations 27
DILUPBiCGStab:  Solving for ILambda_12_0, Initial residual = 5.71102020568e-17, Final residual = 1.46553240501e-61, No Iterations 28
DILUPBiCGStab:  Solving for ILambda_13_0, Initial residual = 5.2986324171e-17, Final residual = 4.63388152935e-61, No Iterations 29
DILUPBiCGStab:  Solving for ILambda_14_0, Initial residual = 5.54718001931e-17, Final residual = 1.38481077993e-61, No Iterations 25
DILUPBiCGStab:  Solving for ILambda_15_0, Initial residual = 4.43823349651e-17, Final residual = 6.21588558677e-62, No Iterations 20
DILUPBiCGStab:  Solving for ILambda_16_0, Initial residual = 4.29315675057e-17, Final residual = 2.45593810779e-62, No Iterations 7
DILUPBiCGStab:  Solving for ILambda_17_0, Initial residual = 4.60193771591e-17, Final residual = 1.18594811076e-61, No Iterations 7
DILUPBiCGStab:  Solving for ILambda_18_0, Initial residual = 4.47399280689e-17, Final residual = 8.32021609929e-62, No Iterations 7
DILUPBiCGStab:  Solving for ILambda_19_0, Initial residual = 4.58793311907e-17, Final residual = 8.27004603945e-62, No Iterations 7
DILUPBiCGStab:  Solving for ILambda_20_0, Initial residual = 4.372561455e-17, Final residual = 3.50808770677e-64, No Iterations 7
DILUPBiCGStab:  Solving for ILambda_21_0, Initial residual = 3.95609465763e-17, Final residual = 7.3549596808e-62, No Iterations 8
DILUPBiCGStab:  Solving for ILambda_22_0, Initial residual = 4.44788715064e-17, Final residual = 3.49717883647e-63, No Iterations 6
DILUPBiCGStab:  Solving for ILambda_23_0, Initial residual = 3.87682592016e-17, Final residual = 1.63587444994e-61, No Iterations 7
DILUPBiCGStab:  Solving for ILambda_24_0, Initial residual = 4.88284545452e-17, Final residual = 2.75370477996e-61, No Iterations 20
DILUPBiCGStab:  Solving for ILambda_25_0, Initial residual = 5.17245507855e-17, Final residual = 6.25301628645e-61, No Iterations 25
DILUPBiCGStab:  Solving for ILambda_26_0, Initial residual = 5.48749052403e-17, Final residual = 3.20128368759e-61, No Iterations 25
DILUPBiCGStab:  Solving for ILambda_27_0, Initial residual = 5.83420627111e-17, Final residual = 2.86879876736e-61, No Iterations 29
DILUPBiCGStab:  Solving for ILambda_28_0, Initial residual = 5.89607123775e-17, Final residual = 9.60903734154e-61, No Iterations 29
DILUPBiCGStab:  Solving for ILambda_29_0, Initial residual = 5.98975247294e-17, Final residual = 2.24432239434e-61, No Iterations 25
DILUPBiCGStab:  Solving for ILambda_30_0, Initial residual = 5.06191394037e-17, Final residual = 6.60581079959e-63, No Iterations 27
DILUPBiCGStab:  Solving for ILambda_31_0, Initial residual = 4.34237678996e-17, Final residual = 3.0337683419e-62, No Iterations 20
DILUPBiCGStab:  Solving for ILambda_32_0, Initial residual = 1.98068508783e-16, Final residual = 6.2567021872e-63, No Iterations 2
DILUPBiCGStab:  Solving for ILambda_33_0, Initial residual = 1.75318517097e-16, Final residual = 1.08233590134e-62, No Iterations 2
DILUPBiCGStab:  Solving for ILambda_34_0, Initial residual = 1.57457897278e-16, Final residual = 1.7175989101e-62, No Iterations 2
DILUPBiCGStab:  Solving for ILambda_35_0, Initial residual = 1.69765626465e-16, Final residual = 8.24123096995e-63, No Iterations 2
DILUPBiCGStab:  Solving for ILambda_36_0, Initial residual = 1.73831038558e-16, Final residual = 1.29686181742e-62, No Iterations 2
DILUPBiCGStab:  Solving for ILambda_37_0, Initial residual = 1.62760608704e-16, Final residual = 2.96171911301e-63, No Iterations 2
DILUPBiCGStab:  Solving for ILambda_38_0, Initial residual = 1.87250977474e-16, Final residual = 1.23663914971e-62, No Iterations 2
DILUPBiCGStab:  Solving for ILambda_39_0, Initial residual = 2.15344470675e-16, Final residual = 8.8398671126e-63, No Iterations 2
DILUPBiCGStab:  Solving for ILambda_40_0, Initial residual = 2.18139951365e-16, Final residual = 3.61972374716e-61, No Iterations 21
DILUPBiCGStab:  Solving for ILambda_41_0, Initial residual = 2.07550844548e-16, Final residual = 8.3092432911e-61, No Iterations 26
DILUPBiCGStab:  Solving for ILambda_42_0, Initial residual = 2.46198093156e-16, Final residual = 1.45417660552e-61, No Iterations 29
DILUPBiCGStab:  Solving for ILambda_43_0, Initial residual = 2.6636199327e-16, Final residual = 1.19813652667e-61, No Iterations 30
DILUPBiCGStab:  Solving for ILambda_44_0, Initial residual = 2.39092459845e-16, Final residual = 3.46660724401e-61, No Iterations 30
DILUPBiCGStab:  Solving for ILambda_45_0, Initial residual = 2.42948482821e-16, Final residual = 1.32201057606e-61, No Iterations 29
DILUPBiCGStab:  Solving for ILambda_46_0, Initial residual = 2.30020744298e-16, Final residual = 2.29184876841e-61, No Iterations 24
DILUPBiCGStab:  Solving for ILambda_47_0, Initial residual = 2.11798452367e-16, Final residual = 5.78007599693e-61, No Iterations 20
DILUPBiCGStab:  Solving for ILambda_48_0, Initial residual = 1.84382074626e-16, Final residual = 1.0122954638e-61, No Iterations 8
DILUPBiCGStab:  Solving for ILambda_49_0, Initial residual = 2.00801444672e-16, Final residual = 9.31376576034e-62, No Iterations 7
DILUPBiCGStab:  Solving for ILambda_50_0, Initial residual = 2.04483429939e-16, Final residual = 1.6822300605e-62, No Iterations 8
DILUPBiCGStab:  Solving for ILambda_51_0, Initial residual = 1.92570004935e-16, Final residual = 1.498718171e-61, No Iterations 8
DILUPBiCGStab:  Solving for ILambda_52_0, Initial residual = 1.84482690176e-16, Final residual = 8.30738481833e-61, No Iterations 8
DILUPBiCGStab:  Solving for ILambda_53_0, Initial residual = 1.90068212878e-16, Final residual = 1.83160256728e-61, No Iterations 8
DILUPBiCGStab:  Solving for ILambda_54_0, Initial residual = 1.74222623402e-16, Final residual = 8.77461437396e-63, No Iterations 8
DILUPBiCGStab:  Solving for ILambda_55_0, Initial residual = 2.15069817416e-16, Final residual = 3.88607119805e-62, No Iterations 7
DILUPBiCGStab:  Solving for ILambda_56_0, Initial residual = 2.06539250369e-16, Final residual = 9.81488836339e-61, No Iterations 21
DILUPBiCGStab:  Solving for ILambda_57_0, Initial residual = 2.21846410685e-16, Final residual = 1.11245710649e-61, No Iterations 26
DILUPBiCGStab:  Solving for ILambda_58_0, Initial residual = 2.63441422977e-16, Final residual = 7.39681259092e-62, No Iterations 25
DILUPBiCGStab:  Solving for ILambda_59_0, Initial residual = 2.45254482456e-16, Final residual = 6.25043186239e-61, No Iterations 29
DILUPBiCGStab:  Solving for ILambda_60_0, Initial residual = 2.53948209855e-16, Final residual = 1.17240561613e-61, No Iterations 30
DILUPBiCGStab:  Solving for ILambda_61_0, Initial residual = 2.5676272592e-16, Final residual = 1.98953709417e-61, No Iterations 28
DILUPBiCGStab:  Solving for ILambda_62_0, Initial residual = 2.27782728142e-16, Final residual = 3.86358100564e-61, No Iterations 26
DILUPBiCGStab:  Solving for ILambda_63_0, Initial residual = 2.38717191037e-16, Final residual = 3.45685192748e-61, No Iterations 21
DILUPBiCGStab:  Solving for ILambda_64_0, Initial residual = 2.05337302445e-16, Final residual = 3.78627899954e-61, No Iterations 6
DILUPBiCGStab:  Solving for ILambda_65_0, Initial residual = 1.9413634431e-16, Final residual = 1.78896226866e-61, No Iterations 8
DILUPBiCGStab:  Solving for ILambda_66_0, Initial residual = 1.75054741195e-16, Final residual = 1.39657120446e-61, No Iterations 8
DILUPBiCGStab:  Solving for ILambda_67_0, Initial residual = 1.84058473262e-16, Final residual = 3.50224074674e-62, No Iterations 8
DILUPBiCGStab:  Solving for ILambda_68_0, Initial residual = 1.82467659834e-16, Final residual = 6.61051188047e-64, No Iterations 8
DILUPBiCGStab:  Solving for ILambda_69_0, Initial residual = 2.05008262403e-16, Final residual = 3.34441159447e-62, No Iterations 8
DILUPBiCGStab:  Solving for ILambda_70_0, Initial residual = 2.14123487377e-16, Final residual = 1.30634160536e-62, No Iterations 7
DILUPBiCGStab:  Solving for ILambda_71_0, Initial residual = 2.35494774093e-16, Final residual = 2.25166222426e-63, No Iterations 8
DILUPBiCGStab:  Solving for ILambda_72_0, Initial residual = 2.03988510206e-16, Final residual = 4.17029587769e-62, No Iterations 20
DILUPBiCGStab:  Solving for ILambda_73_0, Initial residual = 2.11852839151e-16, Final residual = 4.2863601228e-61, No Iterations 25
DILUPBiCGStab:  Solving for ILambda_74_0, Initial residual = 2.26757537267e-16, Final residual = 2.27490426374e-61, No Iterations 28
DILUPBiCGStab:  Solving for ILambda_75_0, Initial residual = 2.41420214194e-16, Final residual = 5.46966465552e-61, No Iterations 31
DILUPBiCGStab:  Solving for ILambda_76_0, Initial residual = 2.67512273749e-16, Final residual = 2.87396421311e-61, No Iterations 30
DILUPBiCGStab:  Solving for ILambda_77_0, Initial residual = 2.51071148989e-16, Final residual = 1.1102322937e-61, No Iterations 29
DILUPBiCGStab:  Solving for ILambda_78_0, Initial residual = 2.11504763735e-16, Final residual = 5.08534362649e-62, No Iterations 25
DILUPBiCGStab:  Solving for ILambda_79_0, Initial residual = 2.16124921023e-16, Final residual = 3.01238526254e-61, No Iterations 20
DILUPBiCGStab:  Solving for ILambda_80_0, Initial residual = 2.15401576798e-16, Final residual = 9.83047044596e-63, No Iterations 2
DILUPBiCGStab:  Solving for ILambda_81_0, Initial residual = 1.81434310941e-16, Final residual = 8.76821454775e-63, No Iterations 2
DILUPBiCGStab:  Solving for ILambda_82_0, Initial residual = 1.62385339896e-16, Final residual = 4.30394008712e-62, No Iterations 2
DILUPBiCGStab:  Solving for ILambda_83_0, Initial residual = 1.7085880082e-16, Final residual = 7.57313462219e-63, No Iterations 2
DILUPBiCGStab:  Solving for ILambda_84_0, Initial residual = 1.716691639e-16, Final residual = 1.26315027824e-62, No Iterations 2
DILUPBiCGStab:  Solving for ILambda_85_0, Initial residual = 1.42974696738e-16, Final residual = 5.29983111243e-62, No Iterations 2
DILUPBiCGStab:  Solving for ILambda_86_0, Initial residual = 1.72694354776e-16, Final residual = 4.2894360434e-63, No Iterations 2
DILUPBiCGStab:  Solving for ILambda_87_0, Initial residual = 2.08423752429e-16, Final residual = 2.43193451977e-62, No Iterations 2
DILUPBiCGStab:  Solving for ILambda_88_0, Initial residual = 2.43987270392e-16, Final residual = 3.30424863099e-62, No Iterations 21
DILUPBiCGStab:  Solving for ILambda_89_0, Initial residual = 2.25316287495e-16, Final residual = 3.38313508871e-61, No Iterations 27
DILUPBiCGStab:  Solving for ILambda_90_0, Initial residual = 2.47900399491e-16, Final residual = 7.05824177114e-62, No Iterations 28
DILUPBiCGStab:  Solving for ILambda_91_0, Initial residual = 2.62544041044e-16, Final residual = 1.90419238144e-61, No Iterations 30
DILUPBiCGStab:  Solving for ILambda_92_0, Initial residual = 2.38676400949e-16, Final residual = 1.31772382388e-61, No Iterations 30
DILUPBiCGStab:  Solving for ILambda_93_0, Initial residual = 2.40375987944e-16, Final residual = 2.36100182646e-61, No Iterations 29
DILUPBiCGStab:  Solving for ILambda_94_0, Initial residual = 2.10960895896e-16, Final residual = 1.35567581579e-61, No Iterations 25
DILUPBiCGStab:  Solving for ILambda_95_0, Initial residual = 2.08692967009e-16, Final residual = 5.51672866834e-62, No Iterations 21
DILUPBiCGStab:  Solving for ILambda_96_0, Initial residual = 4.41783845256e-17, Final residual = 4.41992081559e-62, No Iterations 8
DILUPBiCGStab:  Solving for ILambda_97_0, Initial residual = 4.44054493482e-17, Final residual = 1.79031326413e-61, No Iterations 9
DILUPBiCGStab:  Solving for ILambda_98_0, Initial residual = 4.00137165519e-17, Final residual = 1.64952331676e-61, No Iterations 8
DILUPBiCGStab:  Solving for ILambda_99_0, Initial residual = 4.35420591545e-17, Final residual = 2.42892446971e-61, No Iterations 8
DILUPBiCGStab:  Solving for ILambda_100_0, Initial residual = 4.56386696721e-17, Final residual = 3.17957730359e-61, No Iterations 8
DILUPBiCGStab:  Solving for ILambda_101_0, Initial residual = 4.78508521054e-17, Final residual = 2.25499013345e-61, No Iterations 7
DILUPBiCGStab:  Solving for ILambda_102_0, Initial residual = 4.75476457854e-17, Final residual = 6.39721205568e-62, No Iterations 8
DILUPBiCGStab:  Solving for ILambda_103_0, Initial residual = 4.17690500008e-17, Final residual = 1.31170450458e-62, No Iterations 8
DILUPBiCGStab:  Solving for ILambda_104_0, Initial residual = 4.0663638619e-17, Final residual = 2.32229414701e-62, No Iterations 20
DILUPBiCGStab:  Solving for ILambda_105_0, Initial residual = 4.9883558152e-17, Final residual = 1.18060090084e-61, No Iterations 26
DILUPBiCGStab:  Solving for ILambda_106_0, Initial residual = 5.55737754129e-17, Final residual = 2.9014120152e-61, No Iterations 28
DILUPBiCGStab:  Solving for ILambda_107_0, Initial residual = 5.98404186063e-17, Final residual = 1.5600888679e-61, No Iterations 30
DILUPBiCGStab:  Solving for ILambda_108_0, Initial residual = 5.58375513146e-17, Final residual = 4.05123624712e-61, No Iterations 29
DILUPBiCGStab:  Solving for ILambda_109_0, Initial residual = 5.61951444184e-17, Final residual = 4.89860889522e-61, No Iterations 28
DILUPBiCGStab:  Solving for ILambda_110_0, Initial residual = 5.39707249587e-17, Final residual = 2.45629224667e-61, No Iterations 24
DILUPBiCGStab:  Solving for ILambda_111_0, Initial residual = 5.27143902517e-17, Final residual = 2.29339911517e-61, No Iterations 21
DILUPBiCGStab:  Solving for ILambda_112_0, Initial residual = 3.8915103518e-17, Final residual = 2.53236222686e-63, No Iterations 2
DILUPBiCGStab:  Solving for ILambda_113_0, Initial residual = 4.5446956259e-17, Final residual = 8.92911985122e-64, No Iterations 2
DILUPBiCGStab:  Solving for ILambda_114_0, Initial residual = 4.19743601099e-17, Final residual = 1.84296552173e-61, No Iterations 2
DILUPBiCGStab:  Solving for ILambda_115_0, Initial residual = 3.79211850431e-17, Final residual = 8.4364442342e-64, No Iterations 2
DILUPBiCGStab:  Solving for ILambda_116_0, Initial residual = 4.51451096086e-17, Final residual = 3.48259592077e-63, No Iterations 2
DILUPBiCGStab:  Solving for ILambda_117_0, Initial residual = 3.8766899532e-17, Final residual = 1.77954595436e-63, No Iterations 2
DILUPBiCGStab:  Solving for ILambda_118_0, Initial residual = 4.16113283276e-17, Final residual = 1.41625339751e-63, No Iterations 2
DILUPBiCGStab:  Solving for ILambda_119_0, Initial residual = 4.11979887703e-17, Final residual = 5.49307221718e-64, No Iterations 2
DILUPBiCGStab:  Solving for ILambda_120_0, Initial residual = 5.11874812949e-17, Final residual = 1.49257011558e-62, No Iterations 21
DILUPBiCGStab:  Solving for ILambda_121_0, Initial residual = 4.87890241269e-17, Final residual = 1.16706010744e-61, No Iterations 25
DILUPBiCGStab:  Solving for ILambda_122_0, Initial residual = 5.6182907392e-17, Final residual = 3.77055661945e-61, No Iterations 29
DILUPBiCGStab:  Solving for ILambda_123_0, Initial residual = 5.60061503445e-17, Final residual = 1.91393272915e-61, No Iterations 30
DILUPBiCGStab:  Solving for ILambda_124_0, Initial residual = 5.831214998e-17, Final residual = 2.00228384225e-61, No Iterations 28
DILUPBiCGStab:  Solving for ILambda_125_0, Initial residual = 5.25362735346e-17, Final residual = 7.50380140491e-61, No Iterations 28
DILUPBiCGStab:  Solving for ILambda_126_0, Initial residual = 4.89345087737e-17, Final residual = 5.7970041229e-62, No Iterations 25
DILUPBiCGStab:  Solving for ILambda_127_0, Initial residual = 4.59500340097e-17, Final residual = 4.2043825442e-62, No Iterations 21
min/max(T) = 1000, 1000
PIMPLE: iteration 3
Radiation solver iter: 0
DILUPBiCGStab:  Solving for ILambda_0_0, Initial residual = 4.27860828589e-17, Final residual = 1.81858002226e-63, No Iterations 2
DILUPBiCGStab:  Solving for ILambda_1_0, Initial residual = 4.18710252205e-17, Final residual = 5.25273231035e-63, No Iterations 2
DILUPBiCGStab:  Solving for ILambda_2_0, Initial residual = 3.51365817097e-17, Final residual = 5.58019293907e-64, No Iterations 2
DILUPBiCGStab:  Solving for ILambda_3_0, Initial residual = 3.50237291332e-17, Final residual = 7.63176107672e-64, No Iterations 2
DILUPBiCGStab:  Solving for ILambda_4_0, Initial residual = 4.70812791139e-17, Final residual = 3.99617018775e-63, No Iterations 2
DILUPBiCGStab:  Solving for ILambda_5_0, Initial residual = 4.23278742049e-17, Final residual = 8.65189526026e-64, No Iterations 2
DILUPBiCGStab:  Solving for ILambda_6_0, Initial residual = 4.00898580493e-17, Final residual = 2.64581401561e-63, No Iterations 2
DILUPBiCGStab:  Solving for ILambda_7_0, Initial residual = 3.85221590047e-17, Final residual = 3.80477743156e-63, No Iterations 2
DILUPBiCGStab:  Solving for ILambda_8_0, Initial residual = 3.9056509156e-17, Final residual = 1.09598527516e-61, No Iterations 20
DILUPBiCGStab:  Solving for ILambda_9_0, Initial residual = 4.17418566089e-17, Final residual = 8.70938458531e-62, No Iterations 25
DILUPBiCGStab:  Solving for ILambda_10_0, Initial residual = 5.19366592426e-17, Final residual = 2.64312215502e-61, No Iterations 30
DILUPBiCGStab:  Solving for ILambda_11_0, Initial residual = 5.57858838699e-17, Final residual = 1.09381332966e-61, No Iterations 29
DILUPBiCGStab:  Solving for ILambda_12_0, Initial residual = 5.05361995583e-17, Final residual = 9.22072518912e-61, No Iterations 27
DILUPBiCGStab:  Solving for ILambda_13_0, Initial residual = 5.66125629845e-17, Final residual = 1.3600186606e-61, No Iterations 27
DILUPBiCGStab:  Solving for ILambda_14_0, Initial residual = 5.23649551654e-17, Final residual = 1.30763973925e-61, No Iterations 25
DILUPBiCGStab:  Solving for ILambda_15_0, Initial residual = 4.12877269637e-17, Final residual = 3.68527697553e-61, No Iterations 20
DILUPBiCGStab:  Solving for ILambda_16_0, Initial residual = 4.27724861629e-17, Final residual = 2.51540686019e-63, No Iterations 8
DILUPBiCGStab:  Solving for ILambda_17_0, Initial residual = 4.52579621851e-17, Final residual = 1.43913939446e-63, No Iterations 7
DILUPBiCGStab:  Solving for ILambda_18_0, Initial residual = 4.04012223869e-17, Final residual = 5.3430055362e-62, No Iterations 7
DILUPBiCGStab:  Solving for ILambda_19_0, Initial residual = 4.50376957105e-17, Final residual = 6.60634109454e-64, No Iterations 7
DILUPBiCGStab:  Solving for ILambda_20_0, Initial residual = 4.7555803803e-17, Final residual = 2.20192009756e-63, No Iterations 8
DILUPBiCGStab:  Solving for ILambda_21_0, Initial residual = 3.55784743285e-17, Final residual = 9.00004848024e-61, No Iterations 8
DILUPBiCGStab:  Solving for ILambda_22_0, Initial residual = 4.16344427108e-17, Final residual = 4.34209920821e-63, No Iterations 8
DILUPBiCGStab:  Solving for ILambda_23_0, Initial residual = 3.91054572615e-17, Final residual = 3.51543766801e-63, No Iterations 8
DILUPBiCGStab:  Solving for ILambda_24_0, Initial residual = 4.27316960751e-17, Final residual = 1.31604060289e-63, No Iterations 20
DILUPBiCGStab:  Solving for ILambda_25_0, Initial residual = 4.68175032122e-17, Final residual = 8.21958191138e-62, No Iterations 25
DILUPBiCGStab:  Solving for ILambda_26_0, Initial residual = 5.21134162901e-17, Final residual = 9.03915155547e-61, No Iterations 28
DILUPBiCGStab:  Solving for ILambda_27_0, Initial residual = 4.86639345241e-17, Final residual = 5.99710010917e-61, No Iterations 29
DILUPBiCGStab:  Solving for ILambda_28_0, Initial residual = 5.09998468906e-17, Final residual = 1.9868317924e-61, No Iterations 28
DILUPBiCGStab:  Solving for ILambda_29_0, Initial residual = 4.7717604485e-17, Final residual = 8.16877599557e-62, No Iterations 28
DILUPBiCGStab:  Solving for ILambda_30_0, Initial residual = 4.36385956958e-17, Final residual = 1.03906678836e-61, No Iterations 26
DILUPBiCGStab:  Solving for ILambda_31_0, Initial residual = 3.93583558064e-17, Final residual = 3.05582322777e-61, No Iterations 20
DILUPBiCGStab:  Solving for ILambda_32_0, Initial residual = 1.99376510935e-16, Final residual = 1.56017404831e-62, No Iterations 2
DILUPBiCGStab:  Solving for ILambda_33_0, Initial residual = 1.70687482451e-16, Final residual = 8.97654383834e-63, No Iterations 2
DILUPBiCGStab:  Solving for ILambda_34_0, Initial residual = 1.63777641562e-16, Final residual = 1.09556674546e-61, No Iterations 2
DILUPBiCGStab:  Solving for ILambda_35_0, Initial residual = 1.40929753665e-16, Final residual = 6.73460239607e-63, No Iterations 2
DILUPBiCGStab:  Solving for ILambda_36_0, Initial residual = 1.39621751513e-16, Final residual = 6.86360509678e-63, No Iterations 2
DILUPBiCGStab:  Solving for ILambda_37_0, Initial residual = 1.57020083668e-16, Final residual = 2.81354325301e-63, No Iterations 2
DILUPBiCGStab:  Solving for ILambda_38_0, Initial residual = 1.91093403754e-16, Final residual = 9.90456164988e-62, No Iterations 2
DILUPBiCGStab:  Solving for ILambda_39_0, Initial residual = 2.04994665707e-16, Final residual = 6.12197843794e-63, No Iterations 2
DILUPBiCGStab:  Solving for ILambda_40_0, Initial residual = 2.08154537849e-16, Final residual = 1.10384320898e-61, No Iterations 22
DILUPBiCGStab:  Solving for ILambda_41_0, Initial residual = 1.97766662133e-16, Final residual = 7.78739033497e-61, No Iterations 27
DILUPBiCGStab:  Solving for ILambda_42_0, Initial residual = 1.87860109454e-16, Final residual = 8.87560007287e-62, No Iterations 28
DILUPBiCGStab:  Solving for ILambda_43_0, Initial residual = 2.37702877518e-16, Final residual = 1.22552120809e-61, No Iterations 29
DILUPBiCGStab:  Solving for ILambda_44_0, Initial residual = 1.85877711182e-16, Final residual = 3.89317200188e-61, No Iterations 32
DILUPBiCGStab:  Solving for ILambda_45_0, Initial residual = 2.01027149825e-16, Final residual = 2.36834923843e-63, No Iterations 28
DILUPBiCGStab:  Solving for ILambda_46_0, Initial residual = 2.13155402625e-16, Final residual = 3.92792327293e-61, No Iterations 24
DILUPBiCGStab:  Solving for ILambda_47_0, Initial residual = 1.99626690141e-16, Final residual = 1.72951033422e-61, No Iterations 20
DILUPBiCGStab:  Solving for ILambda_48_0, Initial residual = 1.76205021673e-16, Final residual = 2.4730656367e-62, No Iterations 8
DILUPBiCGStab:  Solving for ILambda_49_0, Initial residual = 1.85991923428e-16, Final residual = 3.31199301957e-62, No Iterations 10
DILUPBiCGStab:  Solving for ILambda_50_0, Initial residual = 1.85178841009e-16, Final residual = 1.9922855675e-63, No Iterations 7
DILUPBiCGStab:  Solving for ILambda_51_0, Initial residual = 1.56413671028e-16, Final residual = 1.38882759098e-61, No Iterations 8
DILUPBiCGStab:  Solving for ILambda_52_0, Initial residual = 1.56827010586e-16, Final residual = 2.86068635544e-62, No Iterations 8
DILUPBiCGStab:  Solving for ILambda_53_0, Initial residual = 1.60838035895e-16, Final residual = 5.76632990224e-61, No Iterations 8
DILUPBiCGStab:  Solving for ILambda_54_0, Initial residual = 1.6034855484e-16, Final residual = 5.50674188567e-62, No Iterations 7
DILUPBiCGStab:  Solving for ILambda_55_0, Initial residual = 2.02669630697e-16, Final residual = 1.17106751861e-62, No Iterations 8
DILUPBiCGStab:  Solving for ILambda_56_0, Initial residual = 1.93209049646e-16, Final residual = 3.52757993228e-61, No Iterations 21
DILUPBiCGStab:  Solving for ILambda_57_0, Initial residual = 1.90310234066e-16, Final residual = 4.13224179207e-61, No Iterations 26
DILUPBiCGStab:  Solving for ILambda_58_0, Initial residual = 2.23962056577e-16, Final residual = 6.60537742629e-61, No Iterations 27
DILUPBiCGStab:  Solving for ILambda_59_0, Initial residual = 1.93848094356e-16, Final residual = 2.25598385955e-61, No Iterations 30
DILUPBiCGStab:  Solving for ILambda_60_0, Initial residual = 1.87792125974e-16, Final residual = 4.14510028731e-61, No Iterations 31
DILUPBiCGStab:  Solving for ILambda_61_0, Initial residual = 2.35184769425e-16, Final residual = 4.59397066085e-61, No Iterations 29
DILUPBiCGStab:  Solving for ILambda_62_0, Initial residual = 1.91909205512e-16, Final residual = 6.42953046453e-61, No Iterations 26
DILUPBiCGStab:  Solving for ILambda_63_0, Initial residual = 1.96208480775e-16, Final residual = 7.25303258407e-61, No Iterations 21
DILUPBiCGStab:  Solving for ILambda_64_0, Initial residual = 2.14909376404e-16, Final residual = 3.30703204399e-63, No Iterations 9
DILUPBiCGStab:  Solving for ILambda_65_0, Initial residual = 1.78850938708e-16, Final residual = 1.18449314709e-62, No Iterations 8
DILUPBiCGStab:  Solving for ILambda_66_0, Initial residual = 1.6112628585e-16, Final residual = 1.72948307801e-63, No Iterations 8
[...]
DILUPBiCGStab:  Solving for ILambda_107_0, Initial residual = 5.2373113183e-17, Final residual = 1.42532887437e-61, No Iterations 28
DILUPBiCGStab:  Solving for ILambda_108_0, Initial residual = 4.73572920419e-17, Final residual = 1.56556017358e-61, No Iterations 30
DILUPBiCGStab:  Solving for ILambda_109_0, Initial residual = 5.50135915392e-17, Final residual = 6.36921603375e-61, No Iterations 27
DILUPBiCGStab:  Solving for ILambda_110_0, Initial residual = 4.47100153378e-17, Final residual = 8.21896484075e-62, No Iterations 23
DILUPBiCGStab:  Solving for ILambda_111_0, Initial residual = 4.5460552955e-17, Final residual = 4.89889772888e-63, No Iterations 20
DILUPBiCGStab:  Solving for ILambda_112_0, Initial residual = 4.25427020012e-17, Final residual = 1.56893134327e-63, No Iterations 2
DILUPBiCGStab:  Solving for ILambda_113_0, Initial residual = 4.24176123983e-17, Final residual = 8.17422838086e-64, No Iterations 2
DILUPBiCGStab:  Solving for ILambda_114_0, Initial residual = 4.37011404973e-17, Final residual = 1.52927024791e-63, No Iterations 2
DILUPBiCGStab:  Solving for ILambda_115_0, Initial residual = 3.92332662036e-17, Final residual = 1.88629615084e-63, No Iterations 2
DILUPBiCGStab:  Solving for ILambda_116_0, Initial residual = 4.40600932707e-17, Final residual = 1.55202100552e-63, No Iterations 2
DILUPBiCGStab:  Solving for ILambda_117_0, Initial residual = 4.10484251147e-17, Final residual = 3.15838557191e-63, No Iterations 2
DILUPBiCGStab:  Solving for ILambda_118_0, Initial residual = 4.42382099878e-17, Final residual = 3.85000708714e-63, No Iterations 2
DILUPBiCGStab:  Solving for ILambda_119_0, Initial residual = 3.91530456974e-17, Final residual = 1.76997302517e-63, No Iterations 2
DILUPBiCGStab:  Solving for ILambda_120_0, Initial residual = 4.43333868596e-17, Final residual = 2.16867602979e-61, No Iterations 19
DILUPBiCGStab:  Solving for ILambda_121_0, Initial residual = 4.8296823733e-17, Final residual = 9.93706611328e-61, No Iterations 26
DILUPBiCGStab:  Solving for ILambda_122_0, Initial residual = 5.16171368874e-17, Final residual = 6.11693515631e-61, No Iterations 28
DILUPBiCGStab:  Solving for ILambda_123_0, Initial residual = 5.60822918419e-17, Final residual = 2.05172742307e-62, No Iterations 29
DILUPBiCGStab:  Solving for ILambda_124_0, Initial residual = 4.63620138974e-17, Final residual = 2.72319589188e-61, No Iterations 28
DILUPBiCGStab:  Solving for ILambda_125_0, Initial residual = 4.44761521672e-17, Final residual = 5.75830552557e-61, No Iterations 27
DILUPBiCGStab:  Solving for ILambda_126_0, Initial residual = 4.04569688403e-17, Final residual = 5.09763620356e-61, No Iterations 26
DILUPBiCGStab:  Solving for ILambda_127_0, Initial residual = 4.22734874211e-17, Final residual = 2.52564026046e-61, No Iterations 20
min/max(T) = 1000, 1000
PIMPLE: iteration 10
Radiation solver iter: 0
DILUPBiCGStab:  Solving for ILambda_0_0, Initial residual = 3.97145892407e-17, Final residual = 1.22227444631e-63, No Iterations 2
DILUPBiCGStab:  Solving for ILambda_1_0, Initial residual = 3.96520444393e-17, Final residual = 8.19732959251e-64, No Iterations 2
DILUPBiCGStab:  Solving for ILambda_2_0, Initial residual = 4.17214615649e-17, Final residual = 6.15501546219e-64, No Iterations 2
DILUPBiCGStab:  Solving for ILambda_3_0, Initial residual = 4.08091232658e-17, Final residual = 1.30732220278e-63, No Iterations 2
DILUPBiCGStab:  Solving for ILambda_4_0, Initial residual = 4.19893164754e-17, Final residual = 1.97863304211e-63, No Iterations 2
DILUPBiCGStab:  Solving for ILambda_5_0, Initial residual = 4.16697941203e-17, Final residual = 1.66493594675e-63, No Iterations 2
DILUPBiCGStab:  Solving for ILambda_6_0, Initial residual = 4.31885450594e-17, Final residual = 3.91349999223e-63, No Iterations 2
DILUPBiCGStab:  Solving for ILambda_7_0, Initial residual = 3.9430418295e-17, Final residual = 4.20650506431e-64, No Iterations 2
DILUPBiCGStab:  Solving for ILambda_8_0, Initial residual = 3.95323935148e-17, Final residual = 1.0872413864e-62, No Iterations 20
DILUPBiCGStab:  Solving for ILambda_9_0, Initial residual = 4.56468276897e-17, Final residual = 1.76182671981e-61, No Iterations 24
DILUPBiCGStab:  Solving for ILambda_10_0, Initial residual = 4.27765651717e-17, Final residual = 2.64008742542e-61, No Iterations 27
DILUPBiCGStab:  Solving for ILambda_11_0, Initial residual = 4.86340217929e-17, Final residual = 1.73387664146e-61, No Iterations 28
DILUPBiCGStab:  Solving for ILambda_12_0, Initial residual = 5.27973300971e-17, Final residual = 1.4581905911e-61, No Iterations 28
DILUPBiCGStab:  Solving for ILambda_13_0, Initial residual = 4.31980627466e-17, Final residual = 2.17388838541e-61, No Iterations 27
DILUPBiCGStab:  Solving for ILambda_14_0, Initial residual = 4.99325062575e-17, Final residual = 3.8677775313e-61, No Iterations 25
DILUPBiCGStab:  Solving for ILambda_15_0, Initial residual = 3.8625493894e-17, Final residual = 4.21908373779e-62, No Iterations 19
DILUPBiCGStab:  Solving for ILambda_16_0, Initial residual = 4.11680760392e-17, Final residual = 9.60143944073e-61, No Iterations 8
DILUPBiCGStab:  Solving for ILambda_17_0, Initial residual = 4.66353074863e-17, Final residual = 7.23620473731e-61, No Iterations 7
DILUPBiCGStab:  Solving for ILambda_18_0, Initial residual = 4.39336439983e-17, Final residual = 3.09347357397e-61, No Iterations 7
DILUPBiCGStab:  Solving for ILambda_19_0, Initial residual = 4.47698408e-17, Final residual = 6.40445873547e-63, No Iterations 7
DILUPBiCGStab:  Solving for ILambda_20_0, Initial residual = 3.70822689021e-17, Final residual = 7.97787244644e-63, No Iterations 7
DILUPBiCGStab:  Solving for ILambda_21_0, Initial residual = 3.67845012605e-17, Final residual = 1.56300772423e-61, No Iterations 7
DILUPBiCGStab:  Solving for ILambda_22_0, Initial residual = 4.17908047144e-17, Final residual = 3.20928301825e-63, No Iterations 8
DILUPBiCGStab:  Solving for ILambda_23_0, Initial residual = 4.22286183244e-17, Final residual = 1.80887671777e-62, No Iterations 7
DILUPBiCGStab:  Solving for ILambda_24_0, Initial residual = 3.89001471525e-17, Final residual = 5.05515705623e-61, No Iterations 19
DILUPBiCGStab:  Solving for ILambda_25_0, Initial residual = 5.16565673057e-17, Final residual = 5.54931721021e-61, No Iterations 25
DILUPBiCGStab:  Solving for ILambda_26_0, Initial residual = 4.60506495598e-17, Final residual = 4.08206072186e-61, No Iterations 29
DILUPBiCGStab:  Solving for ILambda_27_0, Initial residual = 4.93560063486e-17, Final residual = 7.91387180875e-61, No Iterations 28
DILUPBiCGStab:  Solving for ILambda_28_0, Initial residual = 5.184420171e-17, Final residual = 4.22443172586e-61, No Iterations 28
DILUPBiCGStab:  Solving for ILambda_29_0, Initial residual = 4.67916694898e-17, Final residual = 5.68024775669e-61, No Iterations 27
DILUPBiCGStab:  Solving for ILambda_30_0, Initial residual = 3.99063026538e-17, Final residual = 3.75866160828e-61, No Iterations 24
DILUPBiCGStab:  Solving for ILambda_31_0, Initial residual = 3.99416540633e-17, Final residual = 7.61800208462e-62, No Iterations 21
DILUPBiCGStab:  Solving for ILambda_32_0, Initial residual = 1.93883445766e-16, Final residual = 2.24220117014e-62, No Iterations 2
DILUPBiCGStab:  Solving for ILambda_33_0, Initial residual = 1.69469218493e-16, Final residual = 1.03367906685e-62, No Iterations 2
DILUPBiCGStab:  Solving for ILambda_34_0, Initial residual = 1.72332682663e-16, Final residual = 1.73202791529e-62, No Iterations 2
DILUPBiCGStab:  Solving for ILambda_35_0, Initial residual = 1.25048812779e-16, Final residual = 5.56352091585e-63, No Iterations 2
DILUPBiCGStab:  Solving for ILambda_36_0, Initial residual = 1.39975265608e-16, Final residual = 7.05751176105e-63, No Iterations 2
DILUPBiCGStab:  Solving for ILambda_37_0, Initial residual = 1.5297370695e-16, Final residual = 3.71609134483e-63, No Iterations 2
DILUPBiCGStab:  Solving for ILambda_38_0, Initial residual = 2.01483998809e-16, Final residual = 4.23742357019e-62, No Iterations 2
DILUPBiCGStab:  Solving for ILambda_39_0, Initial residual = 1.86299208757e-16, Final residual = 4.84716699672e-63, No Iterations 2
DILUPBiCGStab:  Solving for ILambda_40_0, Initial residual = 2.13924975616e-16, Final residual = 6.33228346469e-62, No Iterations 21
DILUPBiCGStab:  Solving for ILambda_41_0, Initial residual = 1.72256541165e-16, Final residual = 1.66637815027e-61, No Iterations 26
DILUPBiCGStab:  Solving for ILambda_42_0, Initial residual = 2.61904996333e-16, Final residual = 9.88967795493e-62, No Iterations 29
DILUPBiCGStab:  Solving for ILambda_43_0, Initial residual = 1.7598203586e-16, Final residual = 3.02689727383e-61, No Iterations 29
DILUPBiCGStab:  Solving for ILambda_44_0, Initial residual = 1.51600440657e-16, Final residual = 1.23034791974e-61, No Iterations 31
DILUPBiCGStab:  Solving for ILambda_45_0, Initial residual = 1.78445757168e-16, Final residual = 1.03078509681e-61, No Iterations 25
DILUPBiCGStab:  Solving for ILambda_46_0, Initial residual = 1.79666740466e-16, Final residual = 2.90069512851e-62, No Iterations 26
DILUPBiCGStab:  Solving for ILambda_47_0, Initial residual = 1.51510702464e-16, Final residual = 2.46968531236e-61, No Iterations 20
DILUPBiCGStab:  Solving for ILambda_48_0, Initial residual = 1.55785503675e-16, Final residual = 6.4058392586e-61, No Iterations 7
DILUPBiCGStab:  Solving for ILambda_49_0, Initial residual = 1.781357525e-16, Final residual = 3.40903238714e-63, No Iterations 7
DILUPBiCGStab:  Solving for ILambda_50_0, Initial residual = 1.86486843161e-16, Final residual = 5.930978142e-62, No Iterations 8
DILUPBiCGStab:  Solving for ILambda_51_0, Initial residual = 1.33342797317e-16, Final residual = 4.7197270736e-62, No Iterations 9
DILUPBiCGStab:  Solving for ILambda_52_0, Initial residual = 1.41256074368e-16, Final residual = 1.03920076866e-62, No Iterations 8
DILUPBiCGStab:  Solving for ILambda_53_0, Initial residual = 1.65955832256e-16, Final residual = 1.43293152928e-63, No Iterations 7
DILUPBiCGStab:  Solving for ILambda_54_0, Initial residual = 1.73395944287e-16, Final residual = 1.59668739124e-62, No Iterations 7
DILUPBiCGStab:  Solving for ILambda_55_0, Initial residual = 1.97396832003e-16, Final residual = 5.59978885062e-62, No Iterations 8
DILUPBiCGStab:  Solving for ILambda_56_0, Initial residual = 1.78598040163e-16, Final residual = 4.10029532794e-61, No Iterations 21
DILUPBiCGStab:  Solving for ILambda_57_0, Initial residual = 2.06392406052e-16, Final residual = 1.95263263294e-61, No Iterations 26
DILUPBiCGStab:  Solving for ILambda_58_0, Initial residual = 2.44664385851e-16, Final residual = 2.44113377372e-61, No Iterations 27
DILUPBiCGStab:  Solving for ILambda_59_0, Initial residual = 1.75769927403e-16, Final residual = 1.76190743491e-61, No Iterations 30
DILUPBiCGStab:  Solving for ILambda_60_0, Initial residual = 1.3026722469e-16, Final residual = 4.12583824189e-61, No Iterations 29
DILUPBiCGStab:  Solving for ILambda_61_0, Initial residual = 2.34956344933e-16, Final residual = 3.34564451663e-61, No Iterations 27
DILUPBiCGStab:  Solving for ILambda_62_0, Initial residual = 2.00524072074e-16, Final residual = 9.50126022306e-62, No Iterations 26
DILUPBiCGStab:  Solving for ILambda_63_0, Initial residual = 2.11945296684e-16, Final residual = 3.57583725783e-62, No Iterations 22
DILUPBiCGStab:  Solving for ILambda_64_0, Initial residual = 1.97500166892e-16, Final residual = 1.08020650749e-62, No Iterations 9
DILUPBiCGStab:  Solving for ILambda_65_0, Initial residual = 1.7972112725e-16, Final residual = 8.21169034165e-64, No Iterations 8
DILUPBiCGStab:  Solving for ILambda_66_0, Initial residual = 1.61422693822e-16, Final residual = 3.62501817993e-63, No Iterations 9
DILUPBiCGStab:  Solving for ILambda_67_0, Initial residual = 1.30340646848e-16, Final residual = 3.82645715243e-63, No Iterations 8
DILUPBiCGStab:  Solving for ILambda_68_0, Initial residual = 1.33554905774e-16, Final residual = 2.64818144427e-63, No Iterations 8
DILUPBiCGStab:  Solving for ILambda_69_0, Initial residual = 1.62562096943e-16, Final residual = 4.5979088201e-61, No Iterations 8
DILUPBiCGStab:  Solving for ILambda_70_0, Initial residual = 2.09190606082e-16, Final residual = 2.983693827e-63, No Iterations 8
DILUPBiCGStab:  Solving for ILambda_71_0, Initial residual = 2.14166996804e-16, Final residual = 3.69695464621e-63, No Iterations 8
DILUPBiCGStab:  Solving for ILambda_72_0, Initial residual = 2.09451662644e-16, Final residual = 5.05679235605e-61, No Iterations 20
DILUPBiCGStab:  Solving for ILambda_73_0, Initial residual = 1.97323409844e-16, Final residual = 5.20834540859e-62, No Iterations 25
DILUPBiCGStab:  Solving for ILambda_74_0, Initial residual = 1.86448772412e-16, Final residual = 3.48629927642e-61, No Iterations 29
DILUPBiCGStab:  Solving for ILambda_75_0, Initial residual = 2.04140793201e-16, Final residual = 4.87961921857e-61, No Iterations 28
DILUPBiCGStab:  Solving for ILambda_76_0, Initial residual = 1.75201585511e-16, Final residual = 1.0289387062e-61, No Iterations 29
DILUPBiCGStab:  Solving for ILambda_77_0, Initial residual = 2.31780156756e-16, Final residual = 4.15481814512e-61, No Iterations 28
DILUPBiCGStab:  Solving for ILambda_78_0, Initial residual = 1.85877711182e-16, Final residual = 1.1906810396e-61, No Iterations 26
DILUPBiCGStab:  Solving for ILambda_79_0, Initial residual = 1.90334708119e-16, Final residual = 5.47805054636e-61, No Iterations 21
DILUPBiCGStab:  Solving for ILambda_80_0, Initial residual = 2.14632003806e-16, Final residual = 2.95410793029e-62, No Iterations 2
DILUPBiCGStab:  Solving for ILambda_81_0, Initial residual = 1.78649707608e-16, Final residual = 8.02957458324e-63, No Iterations 2
DILUPBiCGStab:  Solving for ILambda_82_0, Initial residual = 1.7405946305e-16, Final residual = 1.80998224412e-62, No Iterations 2
DILUPBiCGStab:  Solving for ILambda_83_0, Initial residual = 1.46330361302e-16, Final residual = 2.02725116528e-63, No Iterations 2
DILUPBiCGStab:  Solving for ILambda_84_0, Initial residual = 1.78201016641e-16, Final residual = 1.75022038274e-62, No Iterations 2
DILUPBiCGStab:  Solving for ILambda_85_0, Initial residual = 1.76460639557e-16, Final residual = 4.71938448854e-63, No Iterations 2
DILUPBiCGStab:  Solving for ILambda_86_0, Initial residual = 1.65868813402e-16, Final residual = 7.68391352782e-63, No Iterations 2
DILUPBiCGStab:  Solving for ILambda_87_0, Initial residual = 2.0670241072e-16, Final residual = 1.64157666673e-62, No Iterations 2
DILUPBiCGStab:  Solving for ILambda_88_0, Initial residual = 1.98005963982e-16, Final residual = 7.22079589285e-64, No Iterations 21
DILUPBiCGStab:  Solving for ILambda_89_0, Initial residual = 2.00059065072e-16, Final residual = 3.23602499614e-61, No Iterations 25
DILUPBiCGStab:  Solving for ILambda_90_0, Initial residual = 2.26996839116e-16, Final residual = 8.0809757516e-61, No Iterations 28
DILUPBiCGStab:  Solving for ILambda_91_0, Initial residual = 2.132369828e-16, Final residual = 3.82876872026e-61, No Iterations 28
DILUPBiCGStab:  Solving for ILambda_92_0, Initial residual = 2.42758129077e-16, Final residual = 3.1342441248e-61, No Iterations 30
DILUPBiCGStab:  Solving for ILambda_93_0, Initial residual = 2.19012859246e-16, Final residual = 2.08705264156e-61, No Iterations 26
DILUPBiCGStab:  Solving for ILambda_94_0, Initial residual = 2.11564589197e-16, Final residual = 4.93416241615e-61, No Iterations 25
DILUPBiCGStab:  Solving for ILambda_95_0, Initial residual = 2.25033476219e-16, Final residual = 1.15418135252e-62, No Iterations 21
DILUPBiCGStab:  Solving for ILambda_96_0, Initial residual = 4.0114332102e-17, Final residual = 3.65281554166e-62, No Iterations 7
DILUPBiCGStab:  Solving for ILambda_97_0, Initial residual = 4.03930643693e-17, Final residual = 8.54502609616e-63, No Iterations 8
DILUPBiCGStab:  Solving for ILambda_98_0, Initial residual = 3.75010471378e-17, Final residual = 1.00105485999e-62, No Iterations 7
DILUPBiCGStab:  Solving for ILambda_99_0, Initial residual = 4.04420124747e-17, Final residual = 1.97662691148e-61, No Iterations 8
DILUPBiCGStab:  Solving for ILambda_100_0, Initial residual = 4.21171254175e-17, Final residual = 8.43893934996e-63, No Iterations 8
DILUPBiCGStab:  Solving for ILambda_101_0, Initial residual = 4.53137086386e-17, Final residual = 4.09434990143e-64, No Iterations 7
DILUPBiCGStab:  Solving for ILambda_102_0, Initial residual = 4.70812791139e-17, Final residual = 1.99799795814e-63, No Iterations 8
DILUPBiCGStab:  Solving for ILambda_103_0, Initial residual = 4.07112270548e-17, Final residual = 6.86361234458e-62, No Iterations 6
DILUPBiCGStab:  Solving for ILambda_104_0, Initial residual = 3.95514288891e-17, Final residual = 2.31533089009e-61, No Iterations 20
DILUPBiCGStab:  Solving for ILambda_105_0, Initial residual = 4.0966844939e-17, Final residual = 1.00827712714e-61, No Iterations 25
DILUPBiCGStab:  Solving for ILambda_106_0, Initial residual = 4.24842362085e-17, Final residual = 8.41255968103e-61, No Iterations 28
DILUPBiCGStab:  Solving for ILambda_107_0, Initial residual = 5.7931442493e-17, Final residual = 2.31567373714e-61, No Iterations 28
DILUPBiCGStab:  Solving for ILambda_108_0, Initial residual = 4.97503105316e-17, Final residual = 5.76860251795e-61, No Iterations 28
DILUPBiCGStab:  Solving for ILambda_109_0, Initial residual = 5.22983313552e-17, Final residual = 5.75833873073e-61, No Iterations 30
DILUPBiCGStab:  Solving for ILambda_110_0, Initial residual = 4.73926434514e-17, Final residual = 5.56637979947e-61, No Iterations 23
DILUPBiCGStab:  Solving for ILambda_111_0, Initial residual = 4.6962987859e-17, Final residual = 5.77850043544e-61, No Iterations 19
DILUPBiCGStab:  Solving for ILambda_112_0, Initial residual = 3.93855491984e-17, Final residual = 1.39137318806e-63, No Iterations 2
DILUPBiCGStab:  Solving for ILambda_113_0, Initial residual = 4.38371074569e-17, Final residual = 2.41440399772e-62, No Iterations 2
DILUPBiCGStab:  Solving for ILambda_114_0, Initial residual = 4.29981913159e-17, Final residual = 1.72723911297e-63, No Iterations 2
DILUPBiCGStab:  Solving for ILambda_115_0, Initial residual = 3.95242354972e-17, Final residual = 1.91450567335e-63, No Iterations 2
DILUPBiCGStab:  Solving for ILambda_116_0, Initial residual = 4.38235107609e-17, Final residual = 1.1495930371e-63, No Iterations 2
DILUPBiCGStab:  Solving for ILambda_117_0, Initial residual = 4.32442915129e-17, Final residual = 2.91580428948e-63, No Iterations 2
DILUPBiCGStab:  Solving for ILambda_118_0, Initial residual = 3.83821130362e-17, Final residual = 5.80696715801e-64, No Iterations 2
DILUPBiCGStab:  Solving for ILambda_119_0, Initial residual = 4.01999912866e-17, Final residual = 1.25457633934e-62, No Iterations 2
DILUPBiCGStab:  Solving for ILambda_120_0, Initial residual = 4.27180993791e-17, Final residual = 5.70627470477e-61, No Iterations 20
DILUPBiCGStab:  Solving for ILambda_121_0, Initial residual = 4.47344893905e-17, Final residual = 6.26527904113e-61, No Iterations 25
DILUPBiCGStab:  Solving for ILambda_122_0, Initial residual = 5.01949224896e-17, Final residual = 2.30762947373e-61, No Iterations 29
DILUPBiCGStab:  Solving for ILambda_123_0, Initial residual = 6.00770011161e-17, Final residual = 3.52091868476e-61, No Iterations 28
DILUPBiCGStab:  Solving for ILambda_124_0, Initial residual = 4.62913110784e-17, Final residual = 6.02491367462e-61, No Iterations 28
DILUPBiCGStab:  Solving for ILambda_125_0, Initial residual = 4.65768416936e-17, Final residual = 2.35893846176e-61, No Iterations 27
DILUPBiCGStab:  Solving for ILambda_126_0, Initial residual = 4.67264053492e-17, Final residual = 1.65039334222e-61, No Iterations 25
DILUPBiCGStab:  Solving for ILambda_127_0, Initial residual = 4.26365192033e-17, Final residual = 2.29142442219e-62, No Iterations 19
min/max(T) = 1000, 1000
ExecutionTime = 1.37 s  ClockTime = 2 s

writeObjects writeObjects1.writeObjects write:
    writing object a
    writing object qem
End

