/*---------------------------------------------------------------------------*\
| =========                 |                                                 |
| \\      /  F ield         | OpenFOAM: The Open Source CFD Toolbox           |
|  \\    /   O peration     | Version:  2306                                  |
|   \\  /    A nd           | Website:  www.openfoam.com                      |
|    \\/     M anipulation  |                                                 |
\*---------------------------------------------------------------------------*/
Build  : _fbf00d6b-20230626 OPENFOAM=2306 version=2306
Arch   : "LSB;label=32;scalar=64"
Exec   : fireRADFoam_MaCFP
Date   : Mar 12 2024
Time   : 19:27:56
Host   : pop-os
PID    : 172661
I/O    : uncollated
Case   : /home/rafay/Desktop/Study/Radiative_Heat_Transfer/Local_copy_RHT2324/01_Projects/02_Rafay/Case_1_q1D_SolidAngle/new_case3/th_6-ph_12/tau_0.0001/res_1
nProcs : 1
trapFpe: Floating point exception trapping enabled (FOAM_SIGFPE).
fileModificationChecking : Monitoring run-time modified files using timeStampMaster (fileModificationSkew 5, maxFileModificationPolls 20)
allowSystemOperations : Allowing user-supplied system call operations

// * * * * * * * * * * * * * * * * * * * * * * * * * * * * * * * * * * * * * //
Create time

Create mesh for time = 0


PIMPLE: no residual control data found. Calculations will employ 10 corrector loops

Reading thermophysical properties

Selecting thermodynamics package 
{
    type            hePsiThermo;
    mixture         singleStepReactingMixture;
    transport       sutherland;
    thermo          janaf;
    energy          sensibleEnthalpy;
    equationOfState perfectGas;
    specie          specie;
}

Selecting chemistryReader foamChemistryReader
    elements not defined in "/home/rafay/Desktop/Study/Radiative_Heat_Transfer/Local_copy_RHT2324/01_Projects/02_Rafay/Case_1_q1D_SolidAngle/new_case3/th_6-ph_12/tau_0.0001/res_1/constant/reactions"
Fuel heat of combustion :47168962.4726
stoichiometric air-fuel ratio :14.6914056505
stoichiometric oxygen-fuel ratio :3.42181919285
Maximum products mass concentrations:
    H2O: 0.0818486943001
    CO2: 0.199950099979
    N2: 0.718201205721
Creating component thermo properties:
    multi-component carrier - 6 species
    no liquid components
    no solid components
Creating field rho


Reading field U

Reading/calculating face flux field phi

Selecting radiationModel fvDOM
Selecting absorptionEmissionModel constantAbsorptionEmission
Selecting scatterModel none
Selecting sootModel none
fvDOM : Allocated 288 rays with average orientation:
	I0 : dAve : 	(0.000387488209079 0.00591192763451 0.0163624617374) : omega : 	0.0175372336349 : d : 	(0.0169275754541 0.25826489366 0.965925826289)
	I1 : dAve : 	(0.00115583459655 0.00581077291359 0.0163624617374) : omega : 	0.0175372336349 : d : 	(0.050493090853 0.253845909725 0.965925826289)
	I2 : dAve : 	(0.00190440433361 0.00561019425706 0.0163624617374) : omega : 	0.0175372336349 : d : 	(0.083194655468 0.245083551895 0.965925826289)
	I3 : dAve : 	(0.00262038918453 0.00531362362136 0.0163624617374) : omega : 	0.0175372336349 : d : 	(0.114472736462 0.232127746542 0.965925826289)
	I4 : dAve : 	(0.00329153844998 0.00492613541228 0.0163624617374) : omega : 	0.0175372336349 : d : 	(0.143792157198 0.215200171088 0.965925826289)
	I5 : dAve : 	(0.00390636857998 0.00445435966052 0.0163624617374) : omega : 	0.0175372336349 : d : 	(0.170651254257 0.194590461042 0.965925826289)
	I6 : dAve : 	(0.00445435966052 0.00390636857998 0.0163624617374) : omega : 	0.0175372336349 : d : 	(0.194590461042 0.170651254257 0.965925826289)
	I7 : dAve : 	(0.00492613541228 0.00329153844998 0.0163624617374) : omega : 	0.0175372336349 : d : 	(0.215200171088 0.143792157198 0.965925826289)
	I8 : dAve : 	(0.00531362362136 0.00262038918453 0.0163624617374) : omega : 	0.0175372336349 : d : 	(0.232127746542 0.114472736462 0.965925826289)
	I9 : dAve : 	(0.00561019425706 0.00190440433361 0.0163624617374) : omega : 	0.0175372336349 : d : 	(0.245083551895 0.083194655468 0.965925826289)
	I10 : dAve : 	(0.00581077291359 0.00115583459655 0.0163624617374) : omega : 	0.0175372336349 : d : 	(0.253845909725 0.050493090853 0.965925826289)
	I11 : dAve : 	(0.00591192763451 0.000387488209079 0.0163624617374) : omega : 	0.0175372336349 : d : 	(0.25826489366 0.0169275754541 0.965925826289)
	I12 : dAve : 	(0.00591192763451 -0.000387488209079 0.0163624617374) : omega : 	0.0175372336349 : d : 	(0.25826489366 -0.0169275754541 0.965925826289)
	I13 : dAve : 	(0.00581077291359 -0.00115583459655 0.0163624617374) : omega : 	0.0175372336349 : d : 	(0.253845909725 -0.050493090853 0.965925826289)
	I14 : dAve : 	(0.00561019425706 -0.00190440433361 0.0163624617374) : omega : 	0.0175372336349 : d : 	(0.245083551895 -0.083194655468 0.965925826289)
	I15 : dAve : 	(0.00531362362136 -0.00262038918453 0.0163624617374) : omega : 	0.0175372336349 : d : 	(0.232127746542 -0.114472736462 0.965925826289)
	I16 : dAve : 	(0.00492613541228 -0.00329153844998 0.0163624617374) : omega : 	0.0175372336349 : d : 	(0.215200171088 -0.143792157198 0.965925826289)
	I17 : dAve : 	(0.00445435966052 -0.00390636857998 0.0163624617374) : omega : 	0.0175372336349 : d : 	(0.194590461042 -0.170651254257 0.965925826289)
	I18 : dAve : 	(0.00390636857998 -0.00445435966052 0.0163624617374) : omega : 	0.0175372336349 : d : 	(0.170651254257 -0.194590461042 0.965925826289)
	I19 : dAve : 	(0.00329153844998 -0.00492613541228 0.0163624617374) : omega : 	0.0175372336349 : d : 	(0.143792157198 -0.215200171088 0.965925826289)
	I20 : dAve : 	(0.00262038918453 -0.00531362362136 0.0163624617374) : omega : 	0.0175372336349 : d : 	(0.114472736462 -0.232127746542 0.965925826289)
	I21 : dAve : 	(0.00190440433361 -0.00561019425706 0.0163624617374) : omega : 	0.0175372336349 : d : 	(0.083194655468 -0.245083551895 0.965925826289)
	I22 : dAve : 	(0.00115583459655 -0.00581077291359 0.0163624617374) : omega : 	0.0175372336349 : d : 	(0.050493090853 -0.253845909725 0.965925826289)
	I23 : dAve : 	(0.000387488209079 -0.00591192763451 0.0163624617374) : omega : 	0.0175372336349 : d : 	(0.0169275754541 -0.25826489366 0.965925826289)
	I24 : dAve : 	(-0.000387488209079 -0.00591192763451 0.0163624617374) : omega : 	0.0175372336349 : d : 	(-0.0169275754541 -0.25826489366 0.965925826289)
	I25 : dAve : 	(-0.00115583459655 -0.00581077291359 0.0163624617374) : omega : 	0.0175372336349 : d : 	(-0.050493090853 -0.253845909725 0.965925826289)
	I26 : dAve : 	(-0.00190440433361 -0.00561019425706 0.0163624617374) : omega : 	0.0175372336349 : d : 	(-0.083194655468 -0.245083551895 0.965925826289)
	I27 : dAve : 	(-0.00262038918453 -0.00531362362136 0.0163624617374) : omega : 	0.0175372336349 : d : 	(-0.114472736462 -0.232127746542 0.965925826289)
	I28 : dAve : 	(-0.00329153844998 -0.00492613541228 0.0163624617374) : omega : 	0.0175372336349 : d : 	(-0.143792157198 -0.215200171088 0.965925826289)
	I29 : dAve : 	(-0.00390636857998 -0.00445435966052 0.0163624617374) : omega : 	0.0175372336349 : d : 	(-0.170651254257 -0.194590461042 0.965925826289)
	I30 : dAve : 	(-0.00445435966052 -0.00390636857998 0.0163624617374) : omega : 	0.0175372336349 : d : 	(-0.194590461042 -0.170651254257 0.965925826289)
	I31 : dAve : 	(-0.00492613541228 -0.00329153844998 0.0163624617374) : omega : 	0.0175372336349 : d : 	(-0.215200171088 -0.143792157198 0.965925826289)
	I32 : dAve : 	(-0.00531362362136 -0.00262038918453 0.0163624617374) : omega : 	0.0175372336349 : d : 	(-0.232127746542 -0.114472736462 0.965925826289)
	I33 : dAve : 	(-0.00561019425706 -0.00190440433361 0.0163624617374) : omega : 	0.0175372336349 : d : 	(-0.245083551895 -0.083194655468 0.965925826289)
	I34 : dAve : 	(-0.00581077291359 -0.00115583459655 0.0163624617374) : omega : 	0.0175372336349 : d : 	(-0.253845909725 -0.050493090853 0.965925826289)
	I35 : dAve : 	(-0.00591192763451 -0.000387488209079 0.0163624617374) : omega : 	0.0175372336349 : d : 	(-0.25826489366 -0.0169275754541 0.965925826289)
	I36 : dAve : 	(-0.00591192763451 0.000387488209079 0.0163624617374) : omega : 	0.0175372336349 : d : 	(-0.25826489366 0.0169275754541 0.965925826289)
	I37 : dAve : 	(-0.00581077291359 0.00115583459655 0.0163624617374) : omega : 	0.0175372336349 : d : 	(-0.253845909725 0.050493090853 0.965925826289)
	I38 : dAve : 	(-0.00561019425706 0.00190440433361 0.0163624617374) : omega : 	0.0175372336349 : d : 	(-0.245083551895 0.083194655468 0.965925826289)
	I39 : dAve : 	(-0.00531362362136 0.00262038918453 0.0163624617374) : omega : 	0.0175372336349 : d : 	(-0.232127746542 0.114472736462 0.965925826289)
	I40 : dAve : 	(-0.00492613541228 0.00329153844998 0.0163624617374) : omega : 	0.0175372336349 : d : 	(-0.215200171088 0.143792157198 0.965925826289)
	I41 : dAve : 	(-0.00445435966052 0.00390636857998 0.0163624617374) : omega : 	0.0175372336349 : d : 	(-0.194590461042 0.170651254257 0.965925826289)
	I42 : dAve : 	(-0.00390636857998 0.00445435966052 0.0163624617374) : omega : 	0.0175372336349 : d : 	(-0.170651254257 0.194590461042 0.965925826289)
	I43 : dAve : 	(-0.00329153844998 0.00492613541228 0.0163624617374) : omega : 	0.0175372336349 : d : 	(-0.143792157198 0.215200171088 0.965925826289)
	I44 : dAve : 	(-0.00262038918453 0.00531362362136 0.0163624617374) : omega : 	0.0175372336349 : d : 	(-0.114472736462 0.232127746542 0.965925826289)
	I45 : dAve : 	(-0.00190440433361 0.00561019425706 0.0163624617374) : omega : 	0.0175372336349 : d : 	(-0.083194655468 0.245083551895 0.965925826289)
	I46 : dAve : 	(-0.00115583459655 0.00581077291359 0.0163624617374) : omega : 	0.0175372336349 : d : 	(-0.050493090853 0.253845909725 0.965925826289)
	I47 : dAve : 	(-0.000387488209079 0.00591192763451 0.0163624617374) : omega : 	0.0175372336349 : d : 	(-0.0169275754541 0.25826489366 0.965925826289)
	I48 : dAve : 	(0.00223973005487 0.034171677215 0.0327249234749) : omega : 	0.0479126133149 : d : 	(0.0462469961895 0.70559281129 0.707106781187)
	I49 : dAve : 	(0.00668086776241 0.0335869903436 0.0327249234749) : omega : 	0.0479126133149 : d : 	(0.137949689641 0.693519922661 0.707106781187)
	I50 : dAve : 	(0.0110076939702 0.0324276207555 0.0327249234749) : omega : 	0.0479126133149 : d : 	(0.227292025657 0.669580715876 0.707106781187)
	I51 : dAve : 	(0.0151461754823 0.0307134055855 0.0327249234749) : omega : 	0.0479126133149 : d : 	(0.312745332096 0.634184797399 0.707106781187)
	I52 : dAve : 	(0.0190255017326 0.0284736755306 0.0327249234749) : omega : 	0.0479126133149 : d : 	(0.392847479194 0.58793780121 0.707106781187)
	I53 : dAve : 	(0.0225792963734 0.025746752993 0.0327249234749) : omega : 	0.0479126133149 : d : 	(0.466227897004 0.531631026234 0.707106781187)
	I54 : dAve : 	(0.025746752993 0.0225792963734 0.0327249234749) : omega : 	0.0479126133149 : d : 	(0.531631026234 0.466227897004 0.707106781187)
	I55 : dAve : 	(0.0284736755306 0.0190255017326 0.0327249234749) : omega : 	0.0479126133149 : d : 	(0.58793780121 0.392847479194 0.707106781187)
	I56 : dAve : 	(0.0307134055855 0.0151461754823 0.0327249234749) : omega : 	0.0479126133149 : d : 	(0.634184797399 0.312745332096 0.707106781187)
	I57 : dAve : 	(0.0324276207555 0.0110076939702 0.0327249234749) : omega : 	0.0479126133149 : d : 	(0.669580715876 0.227292025657 0.707106781187)
	I58 : dAve : 	(0.0335869903436 0.00668086776241 0.0327249234749) : omega : 	0.0479126133149 : d : 	(0.693519922661 0.137949689641 0.707106781187)
	I59 : dAve : 	(0.034171677215 0.00223973005487 0.0327249234749) : omega : 	0.0479126133149 : d : 	(0.70559281129 0.0462469961895 0.707106781187)
	I60 : dAve : 	(0.034171677215 -0.00223973005487 0.0327249234749) : omega : 	0.0479126133149 : d : 	(0.70559281129 -0.0462469961895 0.707106781187)
	I61 : dAve : 	(0.0335869903436 -0.00668086776241 0.0327249234749) : omega : 	0.0479126133149 : d : 	(0.693519922661 -0.137949689641 0.707106781187)
	I62 : dAve : 	(0.0324276207555 -0.0110076939702 0.0327249234749) : omega : 	0.0479126133149 : d : 	(0.669580715876 -0.227292025657 0.707106781187)
	I63 : dAve : 	(0.0307134055855 -0.0151461754823 0.0327249234749) : omega : 	0.0479126133149 : d : 	(0.634184797399 -0.312745332096 0.707106781187)
	I64 : dAve : 	(0.0284736755306 -0.0190255017326 0.0327249234749) : omega : 	0.0479126133149 : d : 	(0.58793780121 -0.392847479194 0.707106781187)
	I65 : dAve : 	(0.025746752993 -0.0225792963734 0.0327249234749) : omega : 	0.0479126133149 : d : 	(0.531631026234 -0.466227897004 0.707106781187)
	I66 : dAve : 	(0.0225792963734 -0.025746752993 0.0327249234749) : omega : 	0.0479126133149 : d : 	(0.466227897004 -0.531631026234 0.707106781187)
	I67 : dAve : 	(0.0190255017326 -0.0284736755306 0.0327249234749) : omega : 	0.0479126133149 : d : 	(0.392847479194 -0.58793780121 0.707106781187)
	I68 : dAve : 	(0.0151461754823 -0.0307134055855 0.0327249234749) : omega : 	0.0479126133149 : d : 	(0.312745332096 -0.634184797399 0.707106781187)
	I69 : dAve : 	(0.0110076939702 -0.0324276207555 0.0327249234749) : omega : 	0.0479126133149 : d : 	(0.227292025657 -0.669580715876 0.707106781187)
	I70 : dAve : 	(0.00668086776241 -0.0335869903436 0.0327249234749) : omega : 	0.0479126133149 : d : 	(0.137949689641 -0.693519922661 0.707106781187)
	I71 : dAve : 	(0.00223973005487 -0.034171677215 0.0327249234749) : omega : 	0.0479126133149 : d : 	(0.0462469961895 -0.70559281129 0.707106781187)
	I72 : dAve : 	(-0.00223973005487 -0.034171677215 0.0327249234749) : omega : 	0.0479126133149 : d : 	(-0.0462469961895 -0.70559281129 0.707106781187)
	I73 : dAve : 	(-0.00668086776241 -0.0335869903436 0.0327249234749) : omega : 	0.0479126133149 : d : 	(-0.137949689641 -0.693519922661 0.707106781187)
	I74 : dAve : 	(-0.0110076939702 -0.0324276207555 0.0327249234749) : omega : 	0.0479126133149 : d : 	(-0.227292025657 -0.669580715876 0.707106781187)
	I75 : dAve : 	(-0.0151461754823 -0.0307134055855 0.0327249234749) : omega : 	0.0479126133149 : d : 	(-0.312745332096 -0.634184797399 0.707106781187)
	I76 : dAve : 	(-0.0190255017326 -0.0284736755306 0.0327249234749) : omega : 	0.0479126133149 : d : 	(-0.392847479194 -0.58793780121 0.707106781187)
	I77 : dAve : 	(-0.0225792963734 -0.025746752993 0.0327249234749) : omega : 	0.0479126133149 : d : 	(-0.466227897004 -0.531631026234 0.707106781187)
	I78 : dAve : 	(-0.025746752993 -0.0225792963734 0.0327249234749) : omega : 	0.0479126133149 : d : 	(-0.531631026234 -0.466227897004 0.707106781187)
	I79 : dAve : 	(-0.0284736755306 -0.0190255017326 0.0327249234749) : omega : 	0.0479126133149 : d : 	(-0.58793780121 -0.392847479194 0.707106781187)
	I80 : dAve : 	(-0.0307134055855 -0.0151461754823 0.0327249234749) : omega : 	0.0479126133149 : d : 	(-0.634184797399 -0.312745332096 0.707106781187)
	I81 : dAve : 	(-0.0324276207555 -0.0110076939702 0.0327249234749) : omega : 	0.0479126133149 : d : 	(-0.669580715876 -0.227292025657 0.707106781187)
	I82 : dAve : 	(-0.0335869903436 -0.00668086776241 0.0327249234749) : omega : 	0.0479126133149 : d : 	(-0.693519922661 -0.137949689641 0.707106781187)
	I83 : dAve : 	(-0.034171677215 -0.00223973005487 0.0327249234749) : omega : 	0.0479126133149 : d : 	(-0.70559281129 -0.0462469961895 0.707106781187)
	I84 : dAve : 	(-0.034171677215 0.00223973005487 0.0327249234749) : omega : 	0.0479126133149 : d : 	(-0.70559281129 0.0462469961895 0.707106781187)
	I85 : dAve : 	(-0.0335869903436 0.00668086776241 0.0327249234749) : omega : 	0.0479126133149 : d : 	(-0.693519922661 0.137949689641 0.707106781187)
	I86 : dAve : 	(-0.0324276207555 0.0110076939702 0.0327249234749) : omega : 	0.0479126133149 : d : 	(-0.669580715876 0.227292025657 0.707106781187)
	I87 : dAve : 	(-0.0307134055855 0.0151461754823 0.0327249234749) : omega : 	0.0479126133149 : d : 	(-0.634184797399 0.312745332096 0.707106781187)
	I88 : dAve : 	(-0.0284736755306 0.0190255017326 0.0327249234749) : omega : 	0.0479126133149 : d : 	(-0.58793780121 0.392847479194 0.707106781187)
	I89 : dAve : 	(-0.025746752993 0.0225792963734 0.0327249234749) : omega : 	0.0479126133149 : d : 	(-0.531631026234 0.466227897004 0.707106781187)
	I90 : dAve : 	(-0.0225792963734 0.025746752993 0.0327249234749) : omega : 	0.0479126133149 : d : 	(-0.466227897004 0.531631026234 0.707106781187)
	I91 : dAve : 	(-0.0190255017326 0.0284736755306 0.0327249234749) : omega : 	0.0479126133149 : d : 	(-0.392847479194 0.58793780121 0.707106781187)
	I92 : dAve : 	(-0.0151461754823 0.0307134055855 0.0327249234749) : omega : 	0.0479126133149 : d : 	(-0.312745332096 0.634184797399 0.707106781187)
	I93 : dAve : 	(-0.0110076939702 0.0324276207555 0.0327249234749) : omega : 	0.0479126133149 : d : 	(-0.227292025657 0.669580715876 0.707106781187)
	I94 : dAve : 	(-0.00668086776241 0.0335869903436 0.0327249234749) : omega : 	0.0479126133149 : d : 	(-0.137949689641 0.693519922661 0.707106781187)
	I95 : dAve : 	(-0.00223973005487 0.034171677215 0.0327249234749) : omega : 	0.0479126133149 : d : 	(-0.0462469961895 0.70559281129 0.707106781187)
	I96 : dAve : 	(0.00409197190067 0.0624314267954 0.0163624617374) : omega : 	0.0654498469498 : d : 	(0.0631745716435 0.963857704949 0.258819045103)
	I97 : dAve : 	(0.0122059009283 0.0613632077737 0.0163624617374) : omega : 	0.0654498469498 : d : 	(0.188442780494 0.947365832386 0.258819045103)
	I98 : dAve : 	(0.0201109836069 0.0592450472539 0.0163624617374) : omega : 	0.0654498469498 : d : 	(0.310486681125 0.914664267771 0.258819045103)
	I99 : dAve : 	(0.0276719617802 0.0561131875497 0.0163624617374) : omega : 	0.0654498469498 : d : 	(0.427218068558 0.866312543941 0.258819045103)
	I100 : dAve : 	(0.0347594650153 0.052021215649 0.0163624617374) : omega : 	0.0654498469498 : d : 	(0.536639636391 0.803137972298 0.258819045103)
	I101 : dAve : 	(0.0412522241668 0.0470391463256 0.0163624617374) : omega : 	0.0654498469498 : d : 	(0.636879151261 0.726221487276 0.258819045103)
	I102 : dAve : 	(0.0470391463256 0.0412522241668 0.0163624617374) : omega : 	0.0654498469498 : d : 	(0.726221487276 0.636879151261 0.258819045103)
	I103 : dAve : 	(0.052021215649 0.0347594650153 0.0163624617374) : omega : 	0.0654498469498 : d : 	(0.803137972298 0.536639636391 0.258819045103)
	I104 : dAve : 	(0.0561131875497 0.0276719617802 0.0163624617374) : omega : 	0.0654498469498 : d : 	(0.866312543941 0.427218068558 0.258819045103)
	I105 : dAve : 	(0.0592450472539 0.0201109836069 0.0163624617374) : omega : 	0.0654498469498 : d : 	(0.914664267771 0.310486681125 0.258819045103)
	I106 : dAve : 	(0.0613632077737 0.0122059009283 0.0163624617374) : omega : 	0.0654498469498 : d : 	(0.947365832386 0.188442780494 0.258819045103)
	I107 : dAve : 	(0.0624314267954 0.00409197190067 0.0163624617374) : omega : 	0.0654498469498 : d : 	(0.963857704949 0.0631745716435 0.258819045103)
	I108 : dAve : 	(0.0624314267954 -0.00409197190067 0.0163624617374) : omega : 	0.0654498469498 : d : 	(0.963857704949 -0.0631745716435 0.258819045103)
	I109 : dAve : 	(0.0613632077737 -0.0122059009283 0.0163624617374) : omega : 	0.0654498469498 : d : 	(0.947365832386 -0.188442780494 0.258819045103)
	I110 : dAve : 	(0.0592450472539 -0.0201109836069 0.0163624617374) : omega : 	0.0654498469498 : d : 	(0.914664267771 -0.310486681125 0.258819045103)
	I111 : dAve : 	(0.0561131875497 -0.0276719617802 0.0163624617374) : omega : 	0.0654498469498 : d : 	(0.866312543941 -0.427218068558 0.258819045103)
	I112 : dAve : 	(0.052021215649 -0.0347594650153 0.0163624617374) : omega : 	0.0654498469498 : d : 	(0.803137972298 -0.536639636391 0.258819045103)
	I113 : dAve : 	(0.0470391463256 -0.0412522241668 0.0163624617374) : omega : 	0.0654498469498 : d : 	(0.726221487276 -0.636879151261 0.258819045103)
	I114 : dAve : 	(0.0412522241668 -0.0470391463256 0.0163624617374) : omega : 	0.0654498469498 : d : 	(0.636879151261 -0.726221487276 0.258819045103)
	I115 : dAve : 	(0.0347594650153 -0.052021215649 0.0163624617374) : omega : 	0.0654498469498 : d : 	(0.536639636391 -0.803137972298 0.258819045103)
	I116 : dAve : 	(0.0276719617802 -0.0561131875497 0.0163624617374) : omega : 	0.0654498469498 : d : 	(0.427218068558 -0.866312543941 0.258819045103)
	I117 : dAve : 	(0.0201109836069 -0.0592450472539 0.0163624617374) : omega : 	0.0654498469498 : d : 	(0.310486681125 -0.914664267771 0.258819045103)
	I118 : dAve : 	(0.0122059009283 -0.0613632077737 0.0163624617374) : omega : 	0.0654498469498 : d : 	(0.188442780494 -0.947365832386 0.258819045103)
	I119 : dAve : 	(0.00409197190067 -0.0624314267954 0.0163624617374) : omega : 	0.0654498469498 : d : 	(0.0631745716435 -0.963857704949 0.258819045103)
	I120 : dAve : 	(-0.00409197190067 -0.0624314267954 0.0163624617374) : omega : 	0.0654498469498 : d : 	(-0.0631745716435 -0.963857704949 0.258819045103)
	I121 : dAve : 	(-0.0122059009283 -0.0613632077737 0.0163624617374) : omega : 	0.0654498469498 : d : 	(-0.188442780494 -0.947365832386 0.258819045103)
	I122 : dAve : 	(-0.0201109836069 -0.0592450472539 0.0163624617374) : omega : 	0.0654498469498 : d : 	(-0.310486681125 -0.914664267771 0.258819045103)
	I123 : dAve : 	(-0.0276719617802 -0.0561131875497 0.0163624617374) : omega : 	0.0654498469498 : d : 	(-0.427218068558 -0.866312543941 0.258819045103)
	I124 : dAve : 	(-0.0347594650153 -0.052021215649 0.0163624617374) : omega : 	0.0654498469498 : d : 	(-0.536639636391 -0.803137972298 0.258819045103)
	I125 : dAve : 	(-0.0412522241668 -0.0470391463256 0.0163624617374) : omega : 	0.0654498469498 : d : 	(-0.636879151261 -0.726221487276 0.258819045103)
	I126 : dAve : 	(-0.0470391463256 -0.0412522241668 0.0163624617374) : omega : 	0.0654498469498 : d : 	(-0.726221487276 -0.636879151261 0.258819045103)
	I127 : dAve : 	(-0.052021215649 -0.0347594650153 0.0163624617374) : omega : 	0.0654498469498 : d : 	(-0.803137972298 -0.536639636391 0.258819045103)
	I128 : dAve : 	(-0.0561131875497 -0.0276719617802 0.0163624617374) : omega : 	0.0654498469498 : d : 	(-0.866312543941 -0.427218068558 0.258819045103)
	I129 : dAve : 	(-0.0592450472539 -0.0201109836069 0.0163624617374) : omega : 	0.0654498469498 : d : 	(-0.914664267771 -0.310486681125 0.258819045103)
	I130 : dAve : 	(-0.0613632077737 -0.0122059009283 0.0163624617374) : omega : 	0.0654498469498 : d : 	(-0.947365832386 -0.188442780494 0.258819045103)
	I131 : dAve : 	(-0.0624314267954 -0.00409197190067 0.0163624617374) : omega : 	0.0654498469498 : d : 	(-0.963857704949 -0.0631745716435 0.258819045103)
	I132 : dAve : 	(-0.0624314267954 0.00409197190067 0.0163624617374) : omega : 	0.0654498469498 : d : 	(-0.963857704949 0.0631745716435 0.258819045103)
	I133 : dAve : 	(-0.0613632077737 0.0122059009283 0.0163624617374) : omega : 	0.0654498469498 : d : 	(-0.947365832386 0.188442780494 0.258819045103)
	I134 : dAve : 	(-0.0592450472539 0.0201109836069 0.0163624617374) : omega : 	0.0654498469498 : d : 	(-0.914664267771 0.310486681125 0.258819045103)
	I135 : dAve : 	(-0.0561131875497 0.0276719617802 0.0163624617374) : omega : 	0.0654498469498 : d : 	(-0.866312543941 0.427218068558 0.258819045103)
	I136 : dAve : 	(-0.052021215649 0.0347594650153 0.0163624617374) : omega : 	0.0654498469498 : d : 	(-0.803137972298 0.536639636391 0.258819045103)
	I137 : dAve : 	(-0.0470391463256 0.0412522241668 0.0163624617374) : omega : 	0.0654498469498 : d : 	(-0.726221487276 0.636879151261 0.258819045103)
	I138 : dAve : 	(-0.0412522241668 0.0470391463256 0.0163624617374) : omega : 	0.0654498469498 : d : 	(-0.636879151261 0.726221487276 0.258819045103)
	I139 : dAve : 	(-0.0347594650153 0.052021215649 0.0163624617374) : omega : 	0.0654498469498 : d : 	(-0.536639636391 0.803137972298 0.258819045103)
	I140 : dAve : 	(-0.0276719617802 0.0561131875497 0.0163624617374) : omega : 	0.0654498469498 : d : 	(-0.427218068558 0.866312543941 0.258819045103)
	I141 : dAve : 	(-0.0201109836069 0.0592450472539 0.0163624617374) : omega : 	0.0654498469498 : d : 	(-0.310486681125 0.914664267771 0.258819045103)
	I142 : dAve : 	(-0.0122059009283 0.0613632077737 0.0163624617374) : omega : 	0.0654498469498 : d : 	(-0.188442780494 0.947365832386 0.258819045103)
	I143 : dAve : 	(-0.00409197190067 0.0624314267954 0.0163624617374) : omega : 	0.0654498469498 : d : 	(-0.0631745716435 0.963857704949 0.258819045103)
	I144 : dAve : 	(0.00409197190067 0.0624314267954 -0.0163624617374) : omega : 	0.0654498469498 : d : 	(0.0631745716435 0.963857704949 -0.258819045103)
	I145 : dAve : 	(0.0122059009283 0.0613632077737 -0.0163624617374) : omega : 	0.0654498469498 : d : 	(0.188442780494 0.947365832386 -0.258819045103)
	I146 : dAve : 	(0.0201109836069 0.0592450472539 -0.0163624617374) : omega : 	0.0654498469498 : d : 	(0.310486681125 0.914664267771 -0.258819045103)
	I147 : dAve : 	(0.0276719617802 0.0561131875497 -0.0163624617374) : omega : 	0.0654498469498 : d : 	(0.427218068558 0.866312543941 -0.258819045103)
	I148 : dAve : 	(0.0347594650153 0.052021215649 -0.0163624617374) : omega : 	0.0654498469498 : d : 	(0.536639636391 0.803137972298 -0.258819045103)
	I149 : dAve : 	(0.0412522241668 0.0470391463256 -0.0163624617374) : omega : 	0.0654498469498 : d : 	(0.636879151261 0.726221487276 -0.258819045103)
	I150 : dAve : 	(0.0470391463256 0.0412522241668 -0.0163624617374) : omega : 	0.0654498469498 : d : 	(0.726221487276 0.636879151261 -0.258819045103)
	I151 : dAve : 	(0.052021215649 0.0347594650153 -0.0163624617374) : omega : 	0.0654498469498 : d : 	(0.803137972298 0.536639636391 -0.258819045103)
	I152 : dAve : 	(0.0561131875497 0.0276719617802 -0.0163624617374) : omega : 	0.0654498469498 : d : 	(0.866312543941 0.427218068558 -0.258819045103)
	I153 : dAve : 	(0.0592450472539 0.0201109836069 -0.0163624617374) : omega : 	0.0654498469498 : d : 	(0.914664267771 0.310486681125 -0.258819045103)
	I154 : dAve : 	(0.0613632077737 0.0122059009283 -0.0163624617374) : omega : 	0.0654498469498 : d : 	(0.947365832386 0.188442780494 -0.258819045103)
	I155 : dAve : 	(0.0624314267954 0.00409197190067 -0.0163624617374) : omega : 	0.0654498469498 : d : 	(0.963857704949 0.0631745716435 -0.258819045103)
	I156 : dAve : 	(0.0624314267954 -0.00409197190067 -0.0163624617374) : omega : 	0.0654498469498 : d : 	(0.963857704949 -0.0631745716435 -0.258819045103)
	I157 : dAve : 	(0.0613632077737 -0.0122059009283 -0.0163624617374) : omega : 	0.0654498469498 : d : 	(0.947365832386 -0.188442780494 -0.258819045103)
	I158 : dAve : 	(0.0592450472539 -0.0201109836069 -0.0163624617374) : omega : 	0.0654498469498 : d : 	(0.914664267771 -0.310486681125 -0.258819045103)
	I159 : dAve : 	(0.0561131875497 -0.0276719617802 -0.0163624617374) : omega : 	0.0654498469498 : d : 	(0.866312543941 -0.427218068558 -0.258819045103)
	I160 : dAve : 	(0.052021215649 -0.0347594650153 -0.0163624617374) : omega : 	0.0654498469498 : d : 	(0.803137972298 -0.536639636391 -0.258819045103)
	I161 : dAve : 	(0.0470391463256 -0.0412522241668 -0.0163624617374) : omega : 	0.0654498469498 : d : 	(0.726221487276 -0.636879151261 -0.258819045103)
	I162 : dAve : 	(0.0412522241668 -0.0470391463256 -0.0163624617374) : omega : 	0.0654498469498 : d : 	(0.636879151261 -0.726221487276 -0.258819045103)
	I163 : dAve : 	(0.0347594650153 -0.052021215649 -0.0163624617374) : omega : 	0.0654498469498 : d : 	(0.536639636391 -0.803137972298 -0.258819045103)
	I164 : dAve : 	(0.0276719617802 -0.0561131875497 -0.0163624617374) : omega : 	0.0654498469498 : d : 	(0.427218068558 -0.866312543941 -0.258819045103)
	I165 : dAve : 	(0.0201109836069 -0.0592450472539 -0.0163624617374) : omega : 	0.0654498469498 : d : 	(0.310486681125 -0.914664267771 -0.258819045103)
	I166 : dAve : 	(0.0122059009283 -0.0613632077737 -0.0163624617374) : omega : 	0.0654498469498 : d : 	(0.188442780494 -0.947365832386 -0.258819045103)
	I167 : dAve : 	(0.00409197190067 -0.0624314267954 -0.0163624617374) : omega : 	0.0654498469498 : d : 	(0.0631745716435 -0.963857704949 -0.258819045103)
	I168 : dAve : 	(-0.00409197190067 -0.0624314267954 -0.0163624617374) : omega : 	0.0654498469498 : d : 	(-0.0631745716435 -0.963857704949 -0.258819045103)
	I169 : dAve : 	(-0.0122059009283 -0.0613632077737 -0.0163624617374) : omega : 	0.0654498469498 : d : 	(-0.188442780494 -0.947365832386 -0.258819045103)
	I170 : dAve : 	(-0.0201109836069 -0.0592450472539 -0.0163624617374) : omega : 	0.0654498469498 : d : 	(-0.310486681125 -0.914664267771 -0.258819045103)
	I171 : dAve : 	(-0.0276719617802 -0.0561131875497 -0.0163624617374) : omega : 	0.0654498469498 : d : 	(-0.427218068558 -0.866312543941 -0.258819045103)
	I172 : dAve : 	(-0.0347594650153 -0.052021215649 -0.0163624617374) : omega : 	0.0654498469498 : d : 	(-0.536639636391 -0.803137972298 -0.258819045103)
	I173 : dAve : 	(-0.0412522241668 -0.0470391463256 -0.0163624617374) : omega : 	0.0654498469498 : d : 	(-0.636879151261 -0.726221487276 -0.258819045103)
	I174 : dAve : 	(-0.0470391463256 -0.0412522241668 -0.0163624617374) : omega : 	0.0654498469498 : d : 	(-0.726221487276 -0.636879151261 -0.258819045103)
	I175 : dAve : 	(-0.052021215649 -0.0347594650153 -0.0163624617374) : omega : 	0.0654498469498 : d : 	(-0.803137972298 -0.536639636391 -0.258819045103)
	I176 : dAve : 	(-0.0561131875497 -0.0276719617802 -0.0163624617374) : omega : 	0.0654498469498 : d : 	(-0.866312543941 -0.427218068558 -0.258819045103)
	I177 : dAve : 	(-0.0592450472539 -0.0201109836069 -0.0163624617374) : omega : 	0.0654498469498 : d : 	(-0.914664267771 -0.310486681125 -0.258819045103)
	I178 : dAve : 	(-0.0613632077737 -0.0122059009283 -0.0163624617374) : omega : 	0.0654498469498 : d : 	(-0.947365832386 -0.188442780494 -0.258819045103)
	I179 : dAve : 	(-0.0624314267954 -0.00409197190067 -0.0163624617374) : omega : 	0.0654498469498 : d : 	(-0.963857704949 -0.0631745716435 -0.258819045103)
	I180 : dAve : 	(-0.0624314267954 0.00409197190067 -0.0163624617374) : omega : 	0.0654498469498 : d : 	(-0.963857704949 0.0631745716435 -0.258819045103)
	I181 : dAve : 	(-0.0613632077737 0.0122059009283 -0.0163624617374) : omega : 	0.0654498469498 : d : 	(-0.947365832386 0.188442780494 -0.258819045103)
	I182 : dAve : 	(-0.0592450472539 0.0201109836069 -0.0163624617374) : omega : 	0.0654498469498 : d : 	(-0.914664267771 0.310486681125 -0.258819045103)
	I183 : dAve : 	(-0.0561131875497 0.0276719617802 -0.0163624617374) : omega : 	0.0654498469498 : d : 	(-0.866312543941 0.427218068558 -0.258819045103)
	I184 : dAve : 	(-0.052021215649 0.0347594650153 -0.0163624617374) : omega : 	0.0654498469498 : d : 	(-0.803137972298 0.536639636391 -0.258819045103)
	I185 : dAve : 	(-0.0470391463256 0.0412522241668 -0.0163624617374) : omega : 	0.0654498469498 : d : 	(-0.726221487276 0.636879151261 -0.258819045103)
	I186 : dAve : 	(-0.0412522241668 0.0470391463256 -0.0163624617374) : omega : 	0.0654498469498 : d : 	(-0.636879151261 0.726221487276 -0.258819045103)
	I187 : dAve : 	(-0.0347594650153 0.052021215649 -0.0163624617374) : omega : 	0.0654498469498 : d : 	(-0.536639636391 0.803137972298 -0.258819045103)
	I188 : dAve : 	(-0.0276719617802 0.0561131875497 -0.0163624617374) : omega : 	0.0654498469498 : d : 	(-0.427218068558 0.866312543941 -0.258819045103)
	I189 : dAve : 	(-0.0201109836069 0.0592450472539 -0.0163624617374) : omega : 	0.0654498469498 : d : 	(-0.310486681125 0.914664267771 -0.258819045103)
	I190 : dAve : 	(-0.0122059009283 0.0613632077737 -0.0163624617374) : omega : 	0.0654498469498 : d : 	(-0.188442780494 0.947365832386 -0.258819045103)
	I191 : dAve : 	(-0.00409197190067 0.0624314267954 -0.0163624617374) : omega : 	0.0654498469498 : d : 	(-0.0631745716435 0.963857704949 -0.258819045103)
	I192 : dAve : 	(0.00223973005487 0.034171677215 -0.0327249234749) : omega : 	0.0479126133149 : d : 	(0.0462469961895 0.70559281129 -0.707106781187)
	I193 : dAve : 	(0.00668086776241 0.0335869903436 -0.0327249234749) : omega : 	0.0479126133149 : d : 	(0.137949689641 0.693519922661 -0.707106781187)
	I194 : dAve : 	(0.0110076939702 0.0324276207555 -0.0327249234749) : omega : 	0.0479126133149 : d : 	(0.227292025657 0.669580715876 -0.707106781187)
	I195 : dAve : 	(0.0151461754823 0.0307134055855 -0.0327249234749) : omega : 	0.0479126133149 : d : 	(0.312745332096 0.634184797399 -0.707106781187)
	I196 : dAve : 	(0.0190255017326 0.0284736755306 -0.0327249234749) : omega : 	0.0479126133149 : d : 	(0.392847479194 0.58793780121 -0.707106781187)
	I197 : dAve : 	(0.0225792963734 0.025746752993 -0.0327249234749) : omega : 	0.0479126133149 : d : 	(0.466227897004 0.531631026234 -0.707106781187)
	I198 : dAve : 	(0.025746752993 0.0225792963734 -0.0327249234749) : omega : 	0.0479126133149 : d : 	(0.531631026234 0.466227897004 -0.707106781187)
	I199 : dAve : 	(0.0284736755306 0.0190255017326 -0.0327249234749) : omega : 	0.0479126133149 : d : 	(0.58793780121 0.392847479194 -0.707106781187)
	I200 : dAve : 	(0.0307134055855 0.0151461754823 -0.0327249234749) : omega : 	0.0479126133149 : d : 	(0.634184797399 0.312745332096 -0.707106781187)
	I201 : dAve : 	(0.0324276207555 0.0110076939702 -0.0327249234749) : omega : 	0.0479126133149 : d : 	(0.669580715876 0.227292025657 -0.707106781187)
	I202 : dAve : 	(0.0335869903436 0.00668086776241 -0.0327249234749) : omega : 	0.0479126133149 : d : 	(0.693519922661 0.137949689641 -0.707106781187)
	I203 : dAve : 	(0.034171677215 0.00223973005487 -0.0327249234749) : omega : 	0.0479126133149 : d : 	(0.70559281129 0.0462469961895 -0.707106781187)
	I204 : dAve : 	(0.034171677215 -0.00223973005487 -0.0327249234749) : omega : 	0.0479126133149 : d : 	(0.70559281129 -0.0462469961895 -0.707106781187)
	I205 : dAve : 	(0.0335869903436 -0.00668086776241 -0.0327249234749) : omega : 	0.0479126133149 : d : 	(0.693519922661 -0.137949689641 -0.707106781187)
	I206 : dAve : 	(0.0324276207555 -0.0110076939702 -0.0327249234749) : omega : 	0.0479126133149 : d : 	(0.669580715876 -0.227292025657 -0.707106781187)
	I207 : dAve : 	(0.0307134055855 -0.0151461754823 -0.0327249234749) : omega : 	0.0479126133149 : d : 	(0.634184797399 -0.312745332096 -0.707106781187)
	I208 : dAve : 	(0.0284736755306 -0.0190255017326 -0.0327249234749) : omega : 	0.0479126133149 : d : 	(0.58793780121 -0.392847479194 -0.707106781187)
	I209 : dAve : 	(0.025746752993 -0.0225792963734 -0.0327249234749) : omega : 	0.0479126133149 : d : 	(0.531631026234 -0.466227897004 -0.707106781187)
	I210 : dAve : 	(0.0225792963734 -0.025746752993 -0.0327249234749) : omega : 	0.0479126133149 : d : 	(0.466227897004 -0.531631026234 -0.707106781187)
	I211 : dAve : 	(0.0190255017326 -0.0284736755306 -0.0327249234749) : omega : 	0.0479126133149 : d : 	(0.392847479194 -0.58793780121 -0.707106781187)
	I212 : dAve : 	(0.0151461754823 -0.0307134055855 -0.0327249234749) : omega : 	0.0479126133149 : d : 	(0.312745332096 -0.634184797399 -0.707106781187)
	I213 : dAve : 	(0.0110076939702 -0.0324276207555 -0.0327249234749) : omega : 	0.0479126133149 : d : 	(0.227292025657 -0.669580715876 -0.707106781187)
	I214 : dAve : 	(0.00668086776241 -0.0335869903436 -0.0327249234749) : omega : 	0.0479126133149 : d : 	(0.137949689641 -0.693519922661 -0.707106781187)
	I215 : dAve : 	(0.00223973005487 -0.034171677215 -0.0327249234749) : omega : 	0.0479126133149 : d : 	(0.0462469961895 -0.70559281129 -0.707106781187)
	I216 : dAve : 	(-0.00223973005487 -0.034171677215 -0.0327249234749) : omega : 	0.0479126133149 : d : 	(-0.0462469961895 -0.70559281129 -0.707106781187)
	I217 : dAve : 	(-0.00668086776241 -0.0335869903436 -0.0327249234749) : omega : 	0.0479126133149 : d : 	(-0.137949689641 -0.693519922661 -0.707106781187)
	I218 : dAve : 	(-0.0110076939702 -0.0324276207555 -0.0327249234749) : omega : 	0.0479126133149 : d : 	(-0.227292025657 -0.669580715876 -0.707106781187)
	I219 : dAve : 	(-0.0151461754823 -0.0307134055855 -0.0327249234749) : omega : 	0.0479126133149 : d : 	(-0.312745332096 -0.634184797399 -0.707106781187)
	I220 : dAve : 	(-0.0190255017326 -0.0284736755306 -0.0327249234749) : omega : 	0.0479126133149 : d : 	(-0.392847479194 -0.58793780121 -0.707106781187)
	I221 : dAve : 	(-0.0225792963734 -0.025746752993 -0.0327249234749) : omega : 	0.0479126133149 : d : 	(-0.466227897004 -0.531631026234 -0.707106781187)
	I222 : dAve : 	(-0.025746752993 -0.0225792963734 -0.0327249234749) : omega : 	0.0479126133149 : d : 	(-0.531631026234 -0.466227897004 -0.707106781187)
	I223 : dAve : 	(-0.0284736755306 -0.0190255017326 -0.0327249234749) : omega : 	0.0479126133149 : d : 	(-0.58793780121 -0.392847479194 -0.707106781187)
	I224 : dAve : 	(-0.0307134055855 -0.0151461754823 -0.0327249234749) : omega : 	0.0479126133149 : d : 	(-0.634184797399 -0.312745332096 -0.707106781187)
	I225 : dAve : 	(-0.0324276207555 -0.0110076939702 -0.0327249234749) : omega : 	0.0479126133149 : d : 	(-0.669580715876 -0.227292025657 -0.707106781187)
	I226 : dAve : 	(-0.0335869903436 -0.00668086776241 -0.0327249234749) : omega : 	0.0479126133149 : d : 	(-0.693519922661 -0.137949689641 -0.707106781187)
	I227 : dAve : 	(-0.034171677215 -0.00223973005487 -0.0327249234749) : omega : 	0.0479126133149 : d : 	(-0.70559281129 -0.0462469961895 -0.707106781187)
	I228 : dAve : 	(-0.034171677215 0.00223973005487 -0.0327249234749) : omega : 	0.0479126133149 : d : 	(-0.70559281129 0.0462469961895 -0.707106781187)
	I229 : dAve : 	(-0.0335869903436 0.00668086776241 -0.0327249234749) : omega : 	0.0479126133149 : d : 	(-0.693519922661 0.137949689641 -0.707106781187)
	I230 : dAve : 	(-0.0324276207555 0.0110076939702 -0.0327249234749) : omega : 	0.0479126133149 : d : 	(-0.669580715876 0.227292025657 -0.707106781187)
	I231 : dAve : 	(-0.0307134055855 0.0151461754823 -0.0327249234749) : omega : 	0.0479126133149 : d : 	(-0.634184797399 0.312745332096 -0.707106781187)
	I232 : dAve : 	(-0.0284736755306 0.0190255017326 -0.0327249234749) : omega : 	0.0479126133149 : d : 	(-0.58793780121 0.392847479194 -0.707106781187)
	I233 : dAve : 	(-0.025746752993 0.0225792963734 -0.0327249234749) : omega : 	0.0479126133149 : d : 	(-0.531631026234 0.466227897004 -0.707106781187)
	I234 : dAve : 	(-0.0225792963734 0.025746752993 -0.0327249234749) : omega : 	0.0479126133149 : d : 	(-0.466227897004 0.531631026234 -0.707106781187)
	I235 : dAve : 	(-0.0190255017326 0.0284736755306 -0.0327249234749) : omega : 	0.0479126133149 : d : 	(-0.392847479194 0.58793780121 -0.707106781187)
	I236 : dAve : 	(-0.0151461754823 0.0307134055855 -0.0327249234749) : omega : 	0.0479126133149 : d : 	(-0.312745332096 0.634184797399 -0.707106781187)
	I237 : dAve : 	(-0.0110076939702 0.0324276207555 -0.0327249234749) : omega : 	0.0479126133149 : d : 	(-0.227292025657 0.669580715876 -0.707106781187)
	I238 : dAve : 	(-0.00668086776241 0.0335869903436 -0.0327249234749) : omega : 	0.0479126133149 : d : 	(-0.137949689641 0.693519922661 -0.707106781187)
	I239 : dAve : 	(-0.00223973005487 0.034171677215 -0.0327249234749) : omega : 	0.0479126133149 : d : 	(-0.0462469961895 0.70559281129 -0.707106781187)
	I240 : dAve : 	(0.000387488209079 0.00591192763451 -0.0163624617374) : omega : 	0.0175372336349 : d : 	(0.0169275754541 0.25826489366 -0.965925826289)
	I241 : dAve : 	(0.00115583459655 0.00581077291359 -0.0163624617374) : omega : 	0.0175372336349 : d : 	(0.050493090853 0.253845909725 -0.965925826289)
	I242 : dAve : 	(0.00190440433361 0.00561019425706 -0.0163624617374) : omega : 	0.0175372336349 : d : 	(0.083194655468 0.245083551895 -0.965925826289)
	I243 : dAve : 	(0.00262038918453 0.00531362362136 -0.0163624617374) : omega : 	0.0175372336349 : d : 	(0.114472736462 0.232127746542 -0.965925826289)
	I244 : dAve : 	(0.00329153844998 0.00492613541228 -0.0163624617374) : omega : 	0.0175372336349 : d : 	(0.143792157198 0.215200171088 -0.965925826289)
	I245 : dAve : 	(0.00390636857998 0.00445435966052 -0.0163624617374) : omega : 	0.0175372336349 : d : 	(0.170651254257 0.194590461042 -0.965925826289)
	I246 : dAve : 	(0.00445435966052 0.00390636857998 -0.0163624617374) : omega : 	0.0175372336349 : d : 	(0.194590461042 0.170651254257 -0.965925826289)
	I247 : dAve : 	(0.00492613541228 0.00329153844998 -0.0163624617374) : omega : 	0.0175372336349 : d : 	(0.215200171088 0.143792157198 -0.965925826289)
	I248 : dAve : 	(0.00531362362136 0.00262038918453 -0.0163624617374) : omega : 	0.0175372336349 : d : 	(0.232127746542 0.114472736462 -0.965925826289)
	I249 : dAve : 	(0.00561019425706 0.00190440433361 -0.0163624617374) : omega : 	0.0175372336349 : d : 	(0.245083551895 0.083194655468 -0.965925826289)
	I250 : dAve : 	(0.00581077291359 0.00115583459655 -0.0163624617374) : omega : 	0.0175372336349 : d : 	(0.253845909725 0.050493090853 -0.965925826289)
	I251 : dAve : 	(0.00591192763451 0.000387488209079 -0.0163624617374) : omega : 	0.0175372336349 : d : 	(0.25826489366 0.0169275754541 -0.965925826289)
	I252 : dAve : 	(0.00591192763451 -0.000387488209079 -0.0163624617374) : omega : 	0.0175372336349 : d : 	(0.25826489366 -0.0169275754541 -0.965925826289)
	I253 : dAve : 	(0.00581077291359 -0.00115583459655 -0.0163624617374) : omega : 	0.0175372336349 : d : 	(0.253845909725 -0.050493090853 -0.965925826289)
	I254 : dAve : 	(0.00561019425706 -0.00190440433361 -0.0163624617374) : omega : 	0.0175372336349 : d : 	(0.245083551895 -0.083194655468 -0.965925826289)
	I255 : dAve : 	(0.00531362362136 -0.00262038918453 -0.0163624617374) : omega : 	0.0175372336349 : d : 	(0.232127746542 -0.114472736462 -0.965925826289)
	I256 : dAve : 	(0.00492613541228 -0.00329153844998 -0.0163624617374) : omega : 	0.0175372336349 : d : 	(0.215200171088 -0.143792157198 -0.965925826289)
	I257 : dAve : 	(0.00445435966052 -0.00390636857998 -0.0163624617374) : omega : 	0.0175372336349 : d : 	(0.194590461042 -0.170651254257 -0.965925826289)
	I258 : dAve : 	(0.00390636857998 -0.00445435966052 -0.0163624617374) : omega : 	0.0175372336349 : d : 	(0.170651254257 -0.194590461042 -0.965925826289)
	I259 : dAve : 	(0.00329153844998 -0.00492613541228 -0.0163624617374) : omega : 	0.0175372336349 : d : 	(0.143792157198 -0.215200171088 -0.965925826289)
	I260 : dAve : 	(0.00262038918453 -0.00531362362136 -0.0163624617374) : omega : 	0.0175372336349 : d : 	(0.114472736462 -0.232127746542 -0.965925826289)
	I261 : dAve : 	(0.00190440433361 -0.00561019425706 -0.0163624617374) : omega : 	0.0175372336349 : d : 	(0.083194655468 -0.245083551895 -0.965925826289)
	I262 : dAve : 	(0.00115583459655 -0.00581077291359 -0.0163624617374) : omega : 	0.0175372336349 : d : 	(0.050493090853 -0.253845909725 -0.965925826289)
	I263 : dAve : 	(0.000387488209079 -0.00591192763451 -0.0163624617374) : omega : 	0.0175372336349 : d : 	(0.0169275754541 -0.25826489366 -0.965925826289)
	I264 : dAve : 	(-0.000387488209079 -0.00591192763451 -0.0163624617374) : omega : 	0.0175372336349 : d : 	(-0.0169275754541 -0.25826489366 -0.965925826289)
	I265 : dAve : 	(-0.00115583459655 -0.00581077291359 -0.0163624617374) : omega : 	0.0175372336349 : d : 	(-0.050493090853 -0.253845909725 -0.965925826289)
	I266 : dAve : 	(-0.00190440433361 -0.00561019425706 -0.0163624617374) : omega : 	0.0175372336349 : d : 	(-0.083194655468 -0.245083551895 -0.965925826289)
	I267 : dAve : 	(-0.00262038918453 -0.00531362362136 -0.0163624617374) : omega : 	0.0175372336349 : d : 	(-0.114472736462 -0.232127746542 -0.965925826289)
	I268 : dAve : 	(-0.00329153844998 -0.00492613541228 -0.0163624617374) : omega : 	0.0175372336349 : d : 	(-0.143792157198 -0.215200171088 -0.965925826289)
	I269 : dAve : 	(-0.00390636857998 -0.00445435966052 -0.0163624617374) : omega : 	0.0175372336349 : d : 	(-0.170651254257 -0.194590461042 -0.965925826289)
	I270 : dAve : 	(-0.00445435966052 -0.00390636857998 -0.0163624617374) : omega : 	0.0175372336349 : d : 	(-0.194590461042 -0.170651254257 -0.965925826289)
	I271 : dAve : 	(-0.00492613541228 -0.00329153844998 -0.0163624617374) : omega : 	0.0175372336349 : d : 	(-0.215200171088 -0.143792157198 -0.965925826289)
	I272 : dAve : 	(-0.00531362362136 -0.00262038918453 -0.0163624617374) : omega : 	0.0175372336349 : d : 	(-0.232127746542 -0.114472736462 -0.965925826289)
	I273 : dAve : 	(-0.00561019425706 -0.00190440433361 -0.0163624617374) : omega : 	0.0175372336349 : d : 	(-0.245083551895 -0.083194655468 -0.965925826289)
	I274 : dAve : 	(-0.00581077291359 -0.00115583459655 -0.0163624617374) : omega : 	0.0175372336349 : d : 	(-0.253845909725 -0.050493090853 -0.965925826289)
	I275 : dAve : 	(-0.00591192763451 -0.000387488209079 -0.0163624617374) : omega : 	0.0175372336349 : d : 	(-0.25826489366 -0.0169275754541 -0.965925826289)
	I276 : dAve : 	(-0.00591192763451 0.000387488209079 -0.0163624617374) : omega : 	0.0175372336349 : d : 	(-0.25826489366 0.0169275754541 -0.965925826289)
	I277 : dAve : 	(-0.00581077291359 0.00115583459655 -0.0163624617374) : omega : 	0.0175372336349 : d : 	(-0.253845909725 0.050493090853 -0.965925826289)
	I278 : dAve : 	(-0.00561019425706 0.00190440433361 -0.0163624617374) : omega : 	0.0175372336349 : d : 	(-0.245083551895 0.083194655468 -0.965925826289)
	I279 : dAve : 	(-0.00531362362136 0.00262038918453 -0.0163624617374) : omega : 	0.0175372336349 : d : 	(-0.232127746542 0.114472736462 -0.965925826289)
	I280 : dAve : 	(-0.00492613541228 0.00329153844998 -0.0163624617374) : omega : 	0.0175372336349 : d : 	(-0.215200171088 0.143792157198 -0.965925826289)
	I281 : dAve : 	(-0.00445435966052 0.00390636857998 -0.0163624617374) : omega : 	0.0175372336349 : d : 	(-0.194590461042 0.170651254257 -0.965925826289)
	I282 : dAve : 	(-0.00390636857998 0.00445435966052 -0.0163624617374) : omega : 	0.0175372336349 : d : 	(-0.170651254257 0.194590461042 -0.965925826289)
	I283 : dAve : 	(-0.00329153844998 0.00492613541228 -0.0163624617374) : omega : 	0.0175372336349 : d : 	(-0.143792157198 0.215200171088 -0.965925826289)
	I284 : dAve : 	(-0.00262038918453 0.00531362362136 -0.0163624617374) : omega : 	0.0175372336349 : d : 	(-0.114472736462 0.232127746542 -0.965925826289)
	I285 : dAve : 	(-0.00190440433361 0.00561019425706 -0.0163624617374) : omega : 	0.0175372336349 : d : 	(-0.083194655468 0.245083551895 -0.965925826289)
	I286 : dAve : 	(-0.00115583459655 0.00581077291359 -0.0163624617374) : omega : 	0.0175372336349 : d : 	(-0.050493090853 0.253845909725 -0.965925826289)
	I287 : dAve : 	(-0.000387488209079 0.00591192763451 -0.0163624617374) : omega : 	0.0175372336349 : d : 	(-0.0169275754541 0.25826489366 -0.965925826289)
Total omega : 12.5663706144

Courant Number mean: 0 max: 0

Starting time loop

Sampled set:
    data -> csv

Sampled set:
    data -> csv

Sampled surface:
    yNormal -> ensight
        sampledCuttingPlane: yNormal : plane:(0 1 0) (0 0 0) offsets:(0)

Sampled surface:
    zNormal -> ensight
        sampledCuttingPlane: zNormal : plane:(0 0 1) (0 0 0) offsets:(0)

Sampled surface:
    patchAll -> ensight
        sampledPatch: patchAll : patches:(".*WW.*")

deltaT = 1
Time = 1

PIMPLE: iteration 1
Radiation solver iter: 0
DILUPBiCGStab:  Solving for ILambda_0_0, Initial residual = 1, Final residual = 2.40559543701e-63, No Iterations 3
DILUPBiCGStab:  Solving for ILambda_1_0, Initial residual = 1, Final residual = 4.61988214789e-62, No Iterations 3
DILUPBiCGStab:  Solving for ILambda_2_0, Initial residual = 1, Final residual = 6.12827570487e-62, No Iterations 3
DILUPBiCGStab:  Solving for ILambda_3_0, Initial residual = 1, Final residual = 9.68457056319e-66, No Iterations 3
DILUPBiCGStab:  Solving for ILambda_4_0, Initial residual = 1, Final residual = 1.26394483067e-61, No Iterations 3
DILUPBiCGStab:  Solving for ILambda_5_0, Initial residual = 1, Final residual = 3.03470669396e-62, No Iterations 3
DILUPBiCGStab:  Solving for ILambda_6_0, Initial residual = 1, Final residual = 1.99107294635e-62, No Iterations 3
DILUPBiCGStab:  Solving for ILambda_7_0, Initial residual = 1, Final residual = 3.21816866659e-61, No Iterations 3
DILUPBiCGStab:  Solving for ILambda_8_0, Initial residual = 1, Final residual = 2.75401096881e-63, No Iterations 3
DILUPBiCGStab:  Solving for ILambda_9_0, Initial residual = 1, Final residual = 1.33889652111e-63, No Iterations 3
DILUPBiCGStab:  Solving for ILambda_10_0, Initial residual = 1, Final residual = 2.12553401718e-67, No Iterations 3
DILUPBiCGStab:  Solving for ILambda_11_0, Initial residual = 1, Final residual = 2.14136843721e-65, No Iterations 3
DILUPBiCGStab:  Solving for ILambda_12_0, Initial residual = 1, Final residual = 6.57268654573e-62, No Iterations 29
DILUPBiCGStab:  Solving for ILambda_13_0, Initial residual = 1, Final residual = 1.41551670817e-61, No Iterations 36
DILUPBiCGStab:  Solving for ILambda_14_0, Initial residual = 1, Final residual = 6.6102610607e-61, No Iterations 39
DILUPBiCGStab:  Solving for ILambda_15_0, Initial residual = 1, Final residual = 3.83757848952e-61, No Iterations 43
DILUPBiCGStab:  Solving for ILambda_16_0, Initial residual = 1, Final residual = 1.41859994249e-61, No Iterations 45
DILUPBiCGStab:  Solving for ILambda_17_0, Initial residual = 1, Final residual = 8.78091958262e-61, No Iterations 47
DILUPBiCGStab:  Solving for ILambda_18_0, Initial residual = 1, Final residual = 3.49036556285e-61, No Iterations 47
DILUPBiCGStab:  Solving for ILambda_19_0, Initial residual = 1, Final residual = 1.75755513051e-61, No Iterations 46
DILUPBiCGStab:  Solving for ILambda_20_0, Initial residual = 1, Final residual = 1.20816980811e-61, No Iterations 43
DILUPBiCGStab:  Solving for ILambda_21_0, Initial residual = 1, Final residual = 2.46216790402e-62, No Iterations 40
DILUPBiCGStab:  Solving for ILambda_22_0, Initial residual = 1, Final residual = 2.03485143897e-61, No Iterations 35
DILUPBiCGStab:  Solving for ILambda_23_0, Initial residual = 1, Final residual = 3.85324739793e-61, No Iterations 26
DILUPBiCGStab:  Solving for ILambda_24_0, Initial residual = 1, Final residual = 3.01314277299e-67, No Iterations 12
DILUPBiCGStab:  Solving for ILambda_25_0, Initial residual = 1, Final residual = 1.71705296204e-63, No Iterations 12
DILUPBiCGStab:  Solving for ILambda_26_0, Initial residual = 1, Final residual = 2.6122738784e-61, No Iterations 12
DILUPBiCGStab:  Solving for ILambda_27_0, Initial residual = 1, Final residual = 7.88977846946e-64, No Iterations 11
DILUPBiCGStab:  Solving for ILambda_28_0, Initial residual = 1, Final residual = 8.12353590895e-63, No Iterations 11
DILUPBiCGStab:  Solving for ILambda_29_0, Initial residual = 1, Final residual = 1.00813854139e-61, No Iterations 10
DILUPBiCGStab:  Solving for ILambda_30_0, Initial residual = 1, Final residual = 1.06973498817e-61, No Iterations 11
DILUPBiCGStab:  Solving for ILambda_31_0, Initial residual = 1, Final residual = 1.93606944843e-61, No Iterations 13
DILUPBiCGStab:  Solving for ILambda_32_0, Initial residual = 1, Final residual = 8.71335354823e-61, No Iterations 12
DILUPBiCGStab:  Solving for ILambda_33_0, Initial residual = 1, Final residual = 1.63563009104e-68, No Iterations 11
DILUPBiCGStab:  Solving for ILambda_34_0, Initial residual = 1, Final residual = 9.40240062051e-61, No Iterations 13
DILUPBiCGStab:  Solving for ILambda_35_0, Initial residual = 1, Final residual = 7.90144795049e-67, No Iterations 11
DILUPBiCGStab:  Solving for ILambda_36_0, Initial residual = 1, Final residual = 2.65514633092e-61, No Iterations 26
DILUPBiCGStab:  Solving for ILambda_37_0, Initial residual = 1, Final residual = 3.03852385942e-61, No Iterations 35
DILUPBiCGStab:  Solving for ILambda_38_0, Initial residual = 1, Final residual = 4.28033685581e-63, No Iterations 41
DILUPBiCGStab:  Solving for ILambda_39_0, Initial residual = 1, Final residual = 4.05563067769e-61, No Iterations 43
DILUPBiCGStab:  Solving for ILambda_40_0, Initial residual = 1, Final residual = 4.51845797752e-61, No Iterations 46
DILUPBiCGStab:  Solving for ILambda_41_0, Initial residual = 1, Final residual = 3.05785870993e-62, No Iterations 47
DILUPBiCGStab:  Solving for ILambda_42_0, Initial residual = 1, Final residual = 6.43276564883e-61, No Iterations 46
DILUPBiCGStab:  Solving for ILambda_43_0, Initial residual = 1, Final residual = 8.60037446528e-62, No Iterations 46
DILUPBiCGStab:  Solving for ILambda_44_0, Initial residual = 1, Final residual = 1.48040976668e-61, No Iterations 43
DILUPBiCGStab:  Solving for ILambda_45_0, Initial residual = 1, Final residual = 3.33227689157e-61, No Iterations 40
DILUPBiCGStab:  Solving for ILambda_46_0, Initial residual = 1, Final residual = 9.67426266396e-61, No Iterations 36
DILUPBiCGStab:  Solving for ILambda_47_0, Initial residual = 1, Final residual = 3.18179541786e-61, No Iterations 28
DILUPBiCGStab:  Solving for ILambda_48_0, Initial residual = 1, Final residual = 2.07977871269e-63, No Iterations 3
DILUPBiCGStab:  Solving for ILambda_49_0, Initial residual = 1, Final residual = 3.92883593162e-62, No Iterations 3
DILUPBiCGStab:  Solving for ILambda_50_0, Initial residual = 1, Final residual = 9.85583000073e-75, No Iterations 3
DILUPBiCGStab:  Solving for ILambda_51_0, Initial residual = 1, Final residual = 3.85907460124e-62, No Iterations 3
DILUPBiCGStab:  Solving for ILambda_52_0, Initial residual = 1, Final residual = 6.17789112509e-62, No Iterations 3
DILUPBiCGStab:  Solving for ILambda_53_0, Initial residual = 1, Final residual = 3.58179866788e-62, No Iterations 3
DILUPBiCGStab:  Solving for ILambda_54_0, Initial residual = 1, Final residual = 1.56098471028e-62, No Iterations 3
DILUPBiCGStab:  Solving for ILambda_55_0, Initial residual = 1, Final residual = 1.22110230735e-61, No Iterations 3
DILUPBiCGStab:  Solving for ILambda_56_0, Initial residual = 1, Final residual = 5.7866054127e-62, No Iterations 3
DILUPBiCGStab:  Solving for ILambda_57_0, Initial residual = 1, Final residual = 3.94729380978e-62, No Iterations 3
DILUPBiCGStab:  Solving for ILambda_58_0, Initial residual = 1, Final residual = 1.82460489288e-63, No Iterations 3
DILUPBiCGStab:  Solving for ILambda_59_0, Initial residual = 1, Final residual = 1.98179157986e-62, No Iterations 3
DILUPBiCGStab:  Solving for ILambda_60_0, Initial residual = 1, Final residual = 6.50449843963e-62, No Iterations 28
DILUPBiCGStab:  Solving for ILambda_61_0, Initial residual = 1, Final residual = 7.95024826759e-62, No Iterations 37
DILUPBiCGStab:  Solving for ILambda_62_0, Initial residual = 1, Final residual = 3.26437832155e-61, No Iterations 40
DILUPBiCGStab:  Solving for ILambda_63_0, Initial residual = 1, Final residual = 3.82547944412e-61, No Iterations 42
DILUPBiCGStab:  Solving for ILambda_64_0, Initial residual = 1, Final residual = 6.73849237628e-61, No Iterations 45
DILUPBiCGStab:  Solving for ILambda_65_0, Initial residual = 1, Final residual = 5.25043835836e-61, No Iterations 45
DILUPBiCGStab:  Solving for ILambda_66_0, Initial residual = 1, Final residual = 3.64211933931e-61, No Iterations 46
DILUPBiCGStab:  Solving for ILambda_67_0, Initial residual = 1, Final residual = 8.20953148798e-62, No Iterations 46
DILUPBiCGStab:  Solving for ILambda_68_0, Initial residual = 1, Final residual = 5.04872977307e-61, No Iterations 42
DILUPBiCGStab:  Solving for ILambda_69_0, Initial residual = 1, Final residual = 5.47540698695e-61, No Iterations 39
DILUPBiCGStab:  Solving for ILambda_70_0, Initial residual = 1, Final residual = 1.27065987591e-62, No Iterations 36
DILUPBiCGStab:  Solving for ILambda_71_0, Initial residual = 1, Final residual = 8.79740105756e-62, No Iterations 27
DILUPBiCGStab:  Solving for ILambda_72_0, Initial residual = 1, Final residual = 2.59058761639e-62, No Iterations 13
DILUPBiCGStab:  Solving for ILambda_73_0, Initial residual = 1, Final residual = 1.44834086034e-61, No Iterations 14
DILUPBiCGStab:  Solving for ILambda_74_0, Initial residual = 1, Final residual = 2.37219450675e-64, No Iterations 12
DILUPBiCGStab:  Solving for ILambda_75_0, Initial residual = 1, Final residual = 2.83820159379e-61, No Iterations 11
DILUPBiCGStab:  Solving for ILambda_76_0, Initial residual = 1, Final residual = 4.92202600566e-63, No Iterations 13
DILUPBiCGStab:  Solving for ILambda_77_0, Initial residual = 1, Final residual = 3.23788502009e-61, No Iterations 13
DILUPBiCGStab:  Solving for ILambda_78_0, Initial residual = 1, Final residual = 1.24491570785e-61, No Iterations 13
DILUPBiCGStab:  Solving for ILambda_79_0, Initial residual = 1, Final residual = 9.47653802482e-61, No Iterations 12
DILUPBiCGStab:  Solving for ILambda_80_0, Initial residual = 1, Final residual = 1.33096946168e-61, No Iterations 11
DILUPBiCGStab:  Solving for ILambda_81_0, Initial residual = 1, Final residual = 4.2803210495e-63, No Iterations 12
DILUPBiCGStab:  Solving for ILambda_82_0, Initial residual = 1, Final residual = 4.96301481364e-61, No Iterations 11
DILUPBiCGStab:  Solving for ILambda_83_0, Initial residual = 1, Final residual = 9.64230461238e-63, No Iterations 12
DILUPBiCGStab:  Solving for ILambda_84_0, Initial residual = 1, Final residual = 2.74546827219e-61, No Iterations 26
DILUPBiCGStab:  Solving for ILambda_85_0, Initial residual = 1, Final residual = 4.00419021257e-61, No Iterations 35
DILUPBiCGStab:  Solving for ILambda_86_0, Initial residual = 1, Final residual = 2.51185078972e-61, No Iterations 40
DILUPBiCGStab:  Solving for ILambda_87_0, Initial residual = 1, Final residual = 1.9880369981e-61, No Iterations 43
DILUPBiCGStab:  Solving for ILambda_88_0, Initial residual = 1, Final residual = 1.78830313022e-61, No Iterations 45
DILUPBiCGStab:  Solving for ILambda_89_0, Initial residual = 1, Final residual = 3.11125638838e-62, No Iterations 48
DILUPBiCGStab:  Solving for ILambda_90_0, Initial residual = 1, Final residual = 1.52994579526e-61, No Iterations 46
DILUPBiCGStab:  Solving for ILambda_91_0, Initial residual = 1, Final residual = 4.13242969853e-62, No Iterations 45
DILUPBiCGStab:  Solving for ILambda_92_0, Initial residual = 1, Final residual = 5.66199966128e-62, No Iterations 44
DILUPBiCGStab:  Solving for ILambda_93_0, Initial residual = 1, Final residual = 4.91698403065e-61, No Iterations 40
DILUPBiCGStab:  Solving for ILambda_94_0, Initial residual = 1, Final residual = 3.29242040981e-61, No Iterations 36
DILUPBiCGStab:  Solving for ILambda_95_0, Initial residual = 1, Final residual = 7.72534667631e-62, No Iterations 28
DILUPBiCGStab:  Solving for ILambda_96_0, Initial residual = 1, Final residual = 1.59865620039e-62, No Iterations 3
DILUPBiCGStab:  Solving for ILambda_97_0, Initial residual = 1, Final residual = 6.68990169082e-74, No Iterations 3
DILUPBiCGStab:  Solving for ILambda_98_0, Initial residual = 1, Final residual = 1.12283872684e-64, No Iterations 3
DILUPBiCGStab:  Solving for ILambda_99_0, Initial residual = 1, Final residual = 2.78764357313e-71, No Iterations 3
DILUPBiCGStab:  Solving for ILambda_100_0, Initial residual = 1, Final residual = 3.5972091972e-62, No Iterations 3
DILUPBiCGStab:  Solving for ILambda_101_0, Initial residual = 1, Final residual = 3.14156321184e-73, No Iterations 3
DILUPBiCGStab:  Solving for ILambda_102_0, Initial residual = 1, Final residual = 3.23968775089e-74, No Iterations 3
DILUPBiCGStab:  Solving for ILambda_103_0, Initial residual = 1, Final residual = 7.86794092942e-62, No Iterations 3
DILUPBiCGStab:  Solving for ILambda_104_0, Initial residual = 1, Final residual = 2.17704580513e-63, No Iterations 3
DILUPBiCGStab:  Solving for ILambda_105_0, Initial residual = 1, Final residual = 1.55674390522e-61, No Iterations 3
DILUPBiCGStab:  Solving for ILambda_106_0, Initial residual = 1, Final residual = 3.26515989688e-63, No Iterations 3
DILUPBiCGStab:  Solving for ILambda_107_0, Initial residual = 1, Final residual = 3.5518330569e-71, No Iterations 3
DILUPBiCGStab:  Solving for ILambda_108_0, Initial residual = 1, Final residual = 2.15805033403e-62, No Iterations 29
DILUPBiCGStab:  Solving for ILambda_109_0, Initial residual = 1, Final residual = 4.1746655487e-61, No Iterations 36
DILUPBiCGStab:  Solving for ILambda_110_0, Initial residual = 1, Final residual = 3.58895057431e-61, No Iterations 40
DILUPBiCGStab:  Solving for ILambda_111_0, Initial residual = 1, Final residual = 1.91365210253e-61, No Iterations 44
DILUPBiCGStab:  Solving for ILambda_112_0, Initial residual = 1, Final residual = 1.93889764364e-61, No Iterations 44
DILUPBiCGStab:  Solving for ILambda_113_0, Initial residual = 1, Final residual = 2.06213583564e-61, No Iterations 47
DILUPBiCGStab:  Solving for ILambda_114_0, Initial residual = 1, Final residual = 7.24317981597e-61, No Iterations 47
DILUPBiCGStab:  Solving for ILambda_115_0, Initial residual = 1, Final residual = 1.52650002417e-61, No Iterations 47
DILUPBiCGStab:  Solving for ILambda_116_0, Initial residual = 1, Final residual = 4.08427252832e-61, No Iterations 42
DILUPBiCGStab:  Solving for ILambda_117_0, Initial residual = 1, Final residual = 8.04637753887e-61, No Iterations 41
DILUPBiCGStab:  Solving for ILambda_118_0, Initial residual = 1, Final residual = 3.35106176002e-61, No Iterations 36
DILUPBiCGStab:  Solving for ILambda_119_0, Initial residual = 1, Final residual = 3.22259827496e-61, No Iterations 27
DILUPBiCGStab:  Solving for ILambda_120_0, Initial residual = 1, Final residual = 9.92487972716e-61, No Iterations 14
DILUPBiCGStab:  Solving for ILambda_121_0, Initial residual = 1, Final residual = 1.47490901348e-66, No Iterations 13
DILUPBiCGStab:  Solving for ILambda_122_0, Initial residual = 1, Final residual = 1.25288615305e-61, No Iterations 11
DILUPBiCGStab:  Solving for ILambda_123_0, Initial residual = 1, Final residual = 1.75533633006e-61, No Iterations 12
DILUPBiCGStab:  Solving for ILambda_124_0, Initial residual = 1, Final residual = 1.90536233365e-61, No Iterations 13
DILUPBiCGStab:  Solving for ILambda_125_0, Initial residual = 1, Final residual = 1.30770589893e-62, No Iterations 13
DILUPBiCGStab:  Solving for ILambda_126_0, Initial residual = 1, Final residual = 2.61927115285e-66, No Iterations 13
DILUPBiCGStab:  Solving for ILambda_127_0, Initial residual = 1, Final residual = 5.5881696082e-62, No Iterations 14
DILUPBiCGStab:  Solving for ILambda_128_0, Initial residual = 1, Final residual = 2.53387330886e-61, No Iterations 13
DILUPBiCGStab:  Solving for ILambda_129_0, Initial residual = 1, Final residual = 1.25918551281e-63, No Iterations 12
DILUPBiCGStab:  Solving for ILambda_130_0, Initial residual = 1, Final residual = 4.54213673142e-61, No Iterations 14
DILUPBiCGStab:  Solving for ILambda_131_0, Initial residual = 1, Final residual = 3.50773634455e-61, No Iterations 13
DILUPBiCGStab:  Solving for ILambda_132_0, Initial residual = 1, Final residual = 1.01980066017e-61, No Iterations 27
DILUPBiCGStab:  Solving for ILambda_133_0, Initial residual = 1, Final residual = 2.14371759139e-61, No Iterations 35
DILUPBiCGStab:  Solving for ILambda_134_0, Initial residual = 1, Final residual = 8.9151042329e-61, No Iterations 39
DILUPBiCGStab:  Solving for ILambda_135_0, Initial residual = 1, Final residual = 2.94764085456e-61, No Iterations 43
DILUPBiCGStab:  Solving for ILambda_136_0, Initial residual = 1, Final residual = 7.65271370405e-62, No Iterations 46
DILUPBiCGStab:  Solving for ILambda_137_0, Initial residual = 1, Final residual = 8.34462670199e-61, No Iterations 46
DILUPBiCGStab:  Solving for ILambda_138_0, Initial residual = 1, Final residual = 5.15343189537e-62, No Iterations 46
DILUPBiCGStab:  Solving for ILambda_139_0, Initial residual = 1, Final residual = 3.85025930134e-61, No Iterations 45
DILUPBiCGStab:  Solving for ILambda_140_0, Initial residual = 1, Final residual = 5.00059348497e-62, No Iterations 44
DILUPBiCGStab:  Solving for ILambda_141_0, Initial residual = 1, Final residual = 1.26648227993e-62, No Iterations 41
DILUPBiCGStab:  Solving for ILambda_142_0, Initial residual = 1, Final residual = 2.39245486158e-61, No Iterations 36
DILUPBiCGStab:  Solving for ILambda_143_0, Initial residual = 1, Final residual = 1.68802998876e-61, No Iterations 29
DILUPBiCGStab:  Solving for ILambda_144_0, Initial residual = 1, Final residual = 5.01332561426e-61, No Iterations 14
DILUPBiCGStab:  Solving for ILambda_145_0, Initial residual = 1, Final residual = 8.42890820216e-61, No Iterations 14
DILUPBiCGStab:  Solving for ILambda_146_0, Initial residual = 1, Final residual = 1.40878403759e-61, No Iterations 16
DILUPBiCGStab:  Solving for ILambda_147_0, Initial residual = 1, Final residual = 1.01349582046e-65, No Iterations 14
DILUPBiCGStab:  Solving for ILambda_148_0, Initial residual = 1, Final residual = 2.27522090925e-61, No Iterations 14
DILUPBiCGStab:  Solving for ILambda_149_0, Initial residual = 1, Final residual = 7.93609382481e-61, No Iterations 15
DILUPBiCGStab:  Solving for ILambda_150_0, Initial residual = 1, Final residual = 8.07874972373e-61, No Iterations 14
DILUPBiCGStab:  Solving for ILambda_151_0, Initial residual = 1, Final residual = 1.62791401985e-63, No Iterations 15
DILUPBiCGStab:  Solving for ILambda_152_0, Initial residual = 1, Final residual = 3.25363236938e-62, No Iterations 18
DILUPBiCGStab:  Solving for ILambda_153_0, Initial residual = 1, Final residual = 6.94289944522e-63, No Iterations 17
DILUPBiCGStab:  Solving for ILambda_154_0, Initial residual = 1, Final residual = 1.66792729744e-64, No Iterations 15
DILUPBiCGStab:  Solving for ILambda_155_0, Initial residual = 1, Final residual = 2.84486565432e-61, No Iterations 17
DILUPBiCGStab:  Solving for ILambda_156_0, Initial residual = 1, Final residual = 8.23586309253e-62, No Iterations 29
DILUPBiCGStab:  Solving for ILambda_157_0, Initial residual = 1, Final residual = 3.63946433147e-61, No Iterations 37
DILUPBiCGStab:  Solving for ILambda_158_0, Initial residual = 1, Final residual = 9.9562666446e-62, No Iterations 41
DILUPBiCGStab:  Solving for ILambda_159_0, Initial residual = 1, Final residual = 8.26929157921e-62, No Iterations 43
DILUPBiCGStab:  Solving for ILambda_160_0, Initial residual = 1, Final residual = 1.55180690367e-61, No Iterations 45
DILUPBiCGStab:  Solving for ILambda_161_0, Initial residual = 1, Final residual = 9.62556651081e-61, No Iterations 47
DILUPBiCGStab:  Solving for ILambda_162_0, Initial residual = 1, Final residual = 4.602535795e-61, No Iterations 46
DILUPBiCGStab:  Solving for ILambda_163_0, Initial residual = 1, Final residual = 1.53525486807e-61, No Iterations 47
DILUPBiCGStab:  Solving for ILambda_164_0, Initial residual = 1, Final residual = 8.31940585623e-62, No Iterations 45
DILUPBiCGStab:  Solving for ILambda_165_0, Initial residual = 1, Final residual = 1.02860598024e-61, No Iterations 40
DILUPBiCGStab:  Solving for ILambda_166_0, Initial residual = 1, Final residual = 7.82680455615e-62, No Iterations 37
DILUPBiCGStab:  Solving for ILambda_167_0, Initial residual = 1, Final residual = 1.49830964273e-61, No Iterations 28
DILUPBiCGStab:  Solving for ILambda_168_0, Initial residual = 1, Final residual = 1.8385883195e-73, No Iterations 3
DILUPBiCGStab:  Solving for ILambda_169_0, Initial residual = 1, Final residual = 1.61368231518e-62, No Iterations 3
DILUPBiCGStab:  Solving for ILambda_170_0, Initial residual = 1, Final residual = 7.33047036749e-62, No Iterations 3
DILUPBiCGStab:  Solving for ILambda_171_0, Initial residual = 1, Final residual = 9.1118190715e-61, No Iterations 3
DILUPBiCGStab:  Solving for ILambda_172_0, Initial residual = 1, Final residual = 2.2432054623e-61, No Iterations 3
DILUPBiCGStab:  Solving for ILambda_173_0, Initial residual = 1, Final residual = 6.61471566541e-62, No Iterations 3
DILUPBiCGStab:  Solving for ILambda_174_0, Initial residual = 1, Final residual = 7.08503307545e-63, No Iterations 3
DILUPBiCGStab:  Solving for ILambda_175_0, Initial residual = 1, Final residual = 3.64063396825e-72, No Iterations 3
DILUPBiCGStab:  Solving for ILambda_176_0, Initial residual = 1, Final residual = 3.52629147275e-74, No Iterations 3
DILUPBiCGStab:  Solving for ILambda_177_0, Initial residual = 1, Final residual = 7.2969382292e-64, No Iterations 3
DILUPBiCGStab:  Solving for ILambda_178_0, Initial residual = 1, Final residual = 1.16964322179e-65, No Iterations 3
DILUPBiCGStab:  Solving for ILambda_179_0, Initial residual = 1, Final residual = 6.40746699995e-65, No Iterations 3
DILUPBiCGStab:  Solving for ILambda_180_0, Initial residual = 1, Final residual = 1.6021177792e-62, No Iterations 28
DILUPBiCGStab:  Solving for ILambda_181_0, Initial residual = 1, Final residual = 5.32459995639e-62, No Iterations 37
DILUPBiCGStab:  Solving for ILambda_182_0, Initial residual = 1, Final residual = 6.4892252564e-61, No Iterations 41
DILUPBiCGStab:  Solving for ILambda_183_0, Initial residual = 1, Final residual = 6.86376814333e-62, No Iterations 45
DILUPBiCGStab:  Solving for ILambda_184_0, Initial residual = 1, Final residual = 8.19411642619e-61, No Iterations 44
DILUPBiCGStab:  Solving for ILambda_185_0, Initial residual = 1, Final residual = 1.28519761054e-61, No Iterations 46
DILUPBiCGStab:  Solving for ILambda_186_0, Initial residual = 1, Final residual = 8.64885254228e-62, No Iterations 46
DILUPBiCGStab:  Solving for ILambda_187_0, Initial residual = 1, Final residual = 1.13501531714e-61, No Iterations 44
DILUPBiCGStab:  Solving for ILambda_188_0, Initial residual = 1, Final residual = 6.14230805995e-61, No Iterations 44
DILUPBiCGStab:  Solving for ILambda_189_0, Initial residual = 1, Final residual = 4.66149049434e-62, No Iterations 41
DILUPBiCGStab:  Solving for ILambda_190_0, Initial residual = 1, Final residual = 3.72297902916e-61, No Iterations 37
DILUPBiCGStab:  Solving for ILambda_191_0, Initial residual = 1, Final residual = 3.89922453264e-61, No Iterations 29
DILUPBiCGStab:  Solving for ILambda_192_0, Initial residual = 1, Final residual = 1.98911303463e-62, No Iterations 14
DILUPBiCGStab:  Solving for ILambda_193_0, Initial residual = 1, Final residual = 5.2403967182e-63, No Iterations 13
DILUPBiCGStab:  Solving for ILambda_194_0, Initial residual = 1, Final residual = 2.6594311531e-62, No Iterations 16
DILUPBiCGStab:  Solving for ILambda_195_0, Initial residual = 1, Final residual = 3.38743260469e-61, No Iterations 15
DILUPBiCGStab:  Solving for ILambda_196_0, Initial residual = 1, Final residual = 3.01406655678e-62, No Iterations 16
DILUPBiCGStab:  Solving for ILambda_197_0, Initial residual = 1, Final residual = 1.93957806639e-61, No Iterations 16
DILUPBiCGStab:  Solving for ILambda_198_0, Initial residual = 1, Final residual = 1.7194108112e-62, No Iterations 15
DILUPBiCGStab:  Solving for ILambda_199_0, Initial residual = 1, Final residual = 1.26071402447e-63, No Iterations 13
DILUPBiCGStab:  Solving for ILambda_200_0, Initial residual = 1, Final residual = 7.02563965882e-61, No Iterations 17
DILUPBiCGStab:  Solving for ILambda_201_0, Initial residual = 1, Final residual = 1.85603642321e-61, No Iterations 18
DILUPBiCGStab:  Solving for ILambda_202_0, Initial residual = 1, Final residual = 8.06858883416e-62, No Iterations 14
DILUPBiCGStab:  Solving for ILambda_203_0, Initial residual = 1, Final residual = 8.66431104301e-61, No Iterations 19
DILUPBiCGStab:  Solving for ILambda_204_0, Initial residual = 1, Final residual = 3.50574489795e-62, No Iterations 29
DILUPBiCGStab:  Solving for ILambda_205_0, Initial residual = 1, Final residual = 5.27373556511e-62, No Iterations 37
DILUPBiCGStab:  Solving for ILambda_206_0, Initial residual = 1, Final residual = 1.00898064775e-61, No Iterations 40
DILUPBiCGStab:  Solving for ILambda_207_0, Initial residual = 1, Final residual = 2.72426413923e-61, No Iterations 44
DILUPBiCGStab:  Solving for ILambda_208_0, Initial residual = 1, Final residual = 1.89503419816e-61, No Iterations 45
DILUPBiCGStab:  Solving for ILambda_209_0, Initial residual = 1, Final residual = 4.90753518298e-61, No Iterations 45
DILUPBiCGStab:  Solving for ILambda_210_0, Initial residual = 1, Final residual = 1.61761886951e-61, No Iterations 45
DILUPBiCGStab:  Solving for ILambda_211_0, Initial residual = 1, Final residual = 1.30043531127e-61, No Iterations 46
DILUPBiCGStab:  Solving for ILambda_212_0, Initial residual = 1, Final residual = 2.06641783163e-61, No Iterations 44
DILUPBiCGStab:  Solving for ILambda_213_0, Initial residual = 1, Final residual = 5.55568442523e-61, No Iterations 41
DILUPBiCGStab:  Solving for ILambda_214_0, Initial residual = 1, Final residual = 1.56214119159e-61, No Iterations 37
DILUPBiCGStab:  Solving for ILambda_215_0, Initial residual = 1, Final residual = 5.89152230875e-62, No Iterations 28
DILUPBiCGStab:  Solving for ILambda_216_0, Initial residual = 1, Final residual = 9.08493364629e-75, No Iterations 3
DILUPBiCGStab:  Solving for ILambda_217_0, Initial residual = 1, Final residual = 1.63508545887e-61, No Iterations 3
DILUPBiCGStab:  Solving for ILambda_218_0, Initial residual = 1, Final residual = 1.28985964614e-62, No Iterations 3
DILUPBiCGStab:  Solving for ILambda_219_0, Initial residual = 1, Final residual = 9.56637616283e-65, No Iterations 3
DILUPBiCGStab:  Solving for ILambda_220_0, Initial residual = 1, Final residual = 1.61617236677e-62, No Iterations 3
DILUPBiCGStab:  Solving for ILambda_221_0, Initial residual = 1, Final residual = 6.00779209002e-62, No Iterations 3
DILUPBiCGStab:  Solving for ILambda_222_0, Initial residual = 1, Final residual = 5.26284371187e-65, No Iterations 3
DILUPBiCGStab:  Solving for ILambda_223_0, Initial residual = 1, Final residual = 7.6542062849e-61, No Iterations 3
DILUPBiCGStab:  Solving for ILambda_224_0, Initial residual = 1, Final residual = 1.16995105078e-62, No Iterations 3
DILUPBiCGStab:  Solving for ILambda_225_0, Initial residual = 1, Final residual = 5.56730980683e-64, No Iterations 3
DILUPBiCGStab:  Solving for ILambda_226_0, Initial residual = 1, Final residual = 1.28274224747e-62, No Iterations 3
DILUPBiCGStab:  Solving for ILambda_227_0, Initial residual = 1, Final residual = 1.87249999671e-61, No Iterations 3
DILUPBiCGStab:  Solving for ILambda_228_0, Initial residual = 1, Final residual = 1.29404093379e-61, No Iterations 28
DILUPBiCGStab:  Solving for ILambda_229_0, Initial residual = 1, Final residual = 9.07181206019e-62, No Iterations 37
DILUPBiCGStab:  Solving for ILambda_230_0, Initial residual = 1, Final residual = 3.30824159578e-61, No Iterations 40
DILUPBiCGStab:  Solving for ILambda_231_0, Initial residual = 1, Final residual = 7.24417116112e-61, No Iterations 44
DILUPBiCGStab:  Solving for ILambda_232_0, Initial residual = 1, Final residual = 2.32018248906e-61, No Iterations 45
DILUPBiCGStab:  Solving for ILambda_233_0, Initial residual = 1, Final residual = 6.48795347791e-61, No Iterations 45
DILUPBiCGStab:  Solving for ILambda_234_0, Initial residual = 1, Final residual = 1.79412517853e-61, No Iterations 45
DILUPBiCGStab:  Solving for ILambda_235_0, Initial residual = 1, Final residual = 4.3582343546e-61, No Iterations 45
DILUPBiCGStab:  Solving for ILambda_236_0, Initial residual = 1, Final residual = 7.94474080941e-62, No Iterations 44
DILUPBiCGStab:  Solving for ILambda_237_0, Initial residual = 1, Final residual = 6.67847377755e-61, No Iterations 40
DILUPBiCGStab:  Solving for ILambda_238_0, Initial residual = 1, Final residual = 5.97140117831e-61, No Iterations 37
DILUPBiCGStab:  Solving for ILambda_239_0, Initial residual = 1, Final residual = 3.56486450482e-62, No Iterations 29
DILUPBiCGStab:  Solving for ILambda_240_0, Initial residual = 1, Final residual = 9.39246046276e-61, No Iterations 14
DILUPBiCGStab:  Solving for ILambda_241_0, Initial residual = 1, Final residual = 2.32218479022e-61, No Iterations 15
DILUPBiCGStab:  Solving for ILambda_242_0, Initial residual = 1, Final residual = 3.78904409849e-63, No Iterations 14
DILUPBiCGStab:  Solving for ILambda_243_0, Initial residual = 1, Final residual = 2.1102495537e-62, No Iterations 12
DILUPBiCGStab:  Solving for ILambda_244_0, Initial residual = 1, Final residual = 1.46697061819e-63, No Iterations 17
DILUPBiCGStab:  Solving for ILambda_245_0, Initial residual = 1, Final residual = 3.18686904364e-62, No Iterations 16
DILUPBiCGStab:  Solving for ILambda_246_0, Initial residual = 1, Final residual = 7.1392916758e-65, No Iterations 12
DILUPBiCGStab:  Solving for ILambda_247_0, Initial residual = 1, Final residual = 5.08153598396e-61, No Iterations 14
DILUPBiCGStab:  Solving for ILambda_248_0, Initial residual = 1, Final residual = 8.67493816595e-62, No Iterations 17
DILUPBiCGStab:  Solving for ILambda_249_0, Initial residual = 1, Final residual = 5.84224620104e-63, No Iterations 15
DILUPBiCGStab:  Solving for ILambda_250_0, Initial residual = 1, Final residual = 3.38288587776e-61, No Iterations 16
DILUPBiCGStab:  Solving for ILambda_251_0, Initial residual = 1, Final residual = 2.57686562447e-61, No Iterations 17
DILUPBiCGStab:  Solving for ILambda_252_0, Initial residual = 1, Final residual = 2.69236636691e-62, No Iterations 28
DILUPBiCGStab:  Solving for ILambda_253_0, Initial residual = 1, Final residual = 3.40720371672e-61, No Iterations 37
DILUPBiCGStab:  Solving for ILambda_254_0, Initial residual = 1, Final residual = 5.2259054668e-62, No Iterations 41
DILUPBiCGStab:  Solving for ILambda_255_0, Initial residual = 1, Final residual = 5.85868920058e-61, No Iterations 44
DILUPBiCGStab:  Solving for ILambda_256_0, Initial residual = 1, Final residual = 2.29053802343e-61, No Iterations 45
DILUPBiCGStab:  Solving for ILambda_257_0, Initial residual = 1, Final residual = 7.09754449211e-61, No Iterations 45
DILUPBiCGStab:  Solving for ILambda_258_0, Initial residual = 1, Final residual = 4.07843903436e-61, No Iterations 45
DILUPBiCGStab:  Solving for ILambda_259_0, Initial residual = 1, Final residual = 2.7383806293e-61, No Iterations 45
DILUPBiCGStab:  Solving for ILambda_260_0, Initial residual = 1, Final residual = 2.39821684164e-61, No Iterations 44
DILUPBiCGStab:  Solving for ILambda_261_0, Initial residual = 1, Final residual = 8.48082592315e-61, No Iterations 40
DILUPBiCGStab:  Solving for ILambda_262_0, Initial residual = 1, Final residual = 8.33664508826e-62, No Iterations 37
DILUPBiCGStab:  Solving for ILambda_263_0, Initial residual = 1, Final residual = 2.49678860602e-62, No Iterations 28
DILUPBiCGStab:  Solving for ILambda_264_0, Initial residual = 1, Final residual = 1.57527908181e-64, No Iterations 3
DILUPBiCGStab:  Solving for ILambda_265_0, Initial residual = 1, Final residual = 6.33582837693e-66, No Iterations 3
DILUPBiCGStab:  Solving for ILambda_266_0, Initial residual = 1, Final residual = 1.56214601886e-63, No Iterations 3
DILUPBiCGStab:  Solving for ILambda_267_0, Initial residual = 1, Final residual = 1.72529205185e-62, No Iterations 3
DILUPBiCGStab:  Solving for ILambda_268_0, Initial residual = 1, Final residual = 3.34584259167e-65, No Iterations 3
DILUPBiCGStab:  Solving for ILambda_269_0, Initial residual = 1, Final residual = 6.29262891053e-66, No Iterations 3
DILUPBiCGStab:  Solving for ILambda_270_0, Initial residual = 1, Final residual = 1.06331369802e-63, No Iterations 3
DILUPBiCGStab:  Solving for ILambda_271_0, Initial residual = 1, Final residual = 3.24146402199e-63, No Iterations 3
DILUPBiCGStab:  Solving for ILambda_272_0, Initial residual = 1, Final residual = 2.32118221278e-64, No Iterations 3
DILUPBiCGStab:  Solving for ILambda_273_0, Initial residual = 1, Final residual = 2.20533146488e-67, No Iterations 3
DILUPBiCGStab:  Solving for ILambda_274_0, Initial residual = 1, Final residual = 4.71590866577e-64, No Iterations 3
DILUPBiCGStab:  Solving for ILambda_275_0, Initial residual = 1, Final residual = 3.86378928148e-66, No Iterations 3
DILUPBiCGStab:  Solving for ILambda_276_0, Initial residual = 1, Final residual = 1.0512276703e-61, No Iterations 28
DILUPBiCGStab:  Solving for ILambda_277_0, Initial residual = 1, Final residual = 6.19327359404e-61, No Iterations 37
DILUPBiCGStab:  Solving for ILambda_278_0, Initial residual = 1, Final residual = 6.22069771629e-61, No Iterations 40
DILUPBiCGStab:  Solving for ILambda_279_0, Initial residual = 1, Final residual = 7.43820776421e-61, No Iterations 43
DILUPBiCGStab:  Solving for ILambda_280_0, Initial residual = 1, Final residual = 3.73414186315e-61, No Iterations 45
DILUPBiCGStab:  Solving for ILambda_281_0, Initial residual = 1, Final residual = 1.70599869239e-61, No Iterations 46
DILUPBiCGStab:  Solving for ILambda_282_0, Initial residual = 1, Final residual = 5.61357655777e-61, No Iterations 45
DILUPBiCGStab:  Solving for ILambda_283_0, Initial residual = 1, Final residual = 2.34240550734e-61, No Iterations 45
DILUPBiCGStab:  Solving for ILambda_284_0, Initial residual = 1, Final residual = 6.79950942987e-62, No Iterations 44
DILUPBiCGStab:  Solving for ILambda_285_0, Initial residual = 1, Final residual = 1.79829258441e-62, No Iterations 41
[...]
DILUPBiCGStab:  Solving for ILambda_140_0, Initial residual = 3.55757053294e-16, Final residual = 2.61139938496e-61, No Iterations 29
DILUPBiCGStab:  Solving for ILambda_141_0, Initial residual = 3.42988990971e-16, Final residual = 2.43808455536e-61, No Iterations 27
DILUPBiCGStab:  Solving for ILambda_142_0, Initial residual = 3.13586149227e-16, Final residual = 5.43003088728e-62, No Iterations 23
DILUPBiCGStab:  Solving for ILambda_143_0, Initial residual = 2.83411928681e-16, Final residual = 5.91725194827e-62, No Iterations 19
DILUPBiCGStab:  Solving for ILambda_144_0, Initial residual = 2.96647722656e-16, Final residual = 7.74611687465e-62, No Iterations 6
DILUPBiCGStab:  Solving for ILambda_145_0, Initial residual = 2.78831719652e-16, Final residual = 1.48386969017e-63, No Iterations 6
DILUPBiCGStab:  Solving for ILambda_146_0, Initial residual = 3.094276396e-16, Final residual = 3.63738213402e-61, No Iterations 5
DILUPBiCGStab:  Solving for ILambda_147_0, Initial residual = 2.65391640631e-16, Final residual = 4.69887049567e-63, No Iterations 5
DILUPBiCGStab:  Solving for ILambda_148_0, Initial residual = 2.36509653256e-16, Final residual = 5.08678472988e-65, No Iterations 6
DILUPBiCGStab:  Solving for ILambda_149_0, Initial residual = 1.98290623558e-16, Final residual = 3.22891305883e-62, No Iterations 7
DILUPBiCGStab:  Solving for ILambda_150_0, Initial residual = 2.96765432333e-16, Final residual = 8.35375819028e-63, No Iterations 5
DILUPBiCGStab:  Solving for ILambda_151_0, Initial residual = 2.48966197217e-16, Final residual = 1.00734659703e-63, No Iterations 6
DILUPBiCGStab:  Solving for ILambda_152_0, Initial residual = 2.70706342112e-16, Final residual = 1.54697369245e-65, No Iterations 6
DILUPBiCGStab:  Solving for ILambda_153_0, Initial residual = 3.86514492429e-16, Final residual = 2.99899721816e-64, No Iterations 6
DILUPBiCGStab:  Solving for ILambda_154_0, Initial residual = 3.59953763794e-16, Final residual = 1.08045377964e-62, No Iterations 6
DILUPBiCGStab:  Solving for ILambda_155_0, Initial residual = 3.66970399825e-16, Final residual = 7.55146811058e-61, No Iterations 5
DILUPBiCGStab:  Solving for ILambda_156_0, Initial residual = 3.16582077614e-16, Final residual = 4.38697971213e-62, No Iterations 21
DILUPBiCGStab:  Solving for ILambda_157_0, Initial residual = 2.77952995998e-16, Final residual = 6.54486840863e-62, No Iterations 23
DILUPBiCGStab:  Solving for ILambda_158_0, Initial residual = 3.7464585951e-16, Final residual = 4.76726516719e-61, No Iterations 29
DILUPBiCGStab:  Solving for ILambda_159_0, Initial residual = 2.2898302959e-16, Final residual = 1.58665001856e-61, No Iterations 27
DILUPBiCGStab:  Solving for ILambda_160_0, Initial residual = 3.29853228311e-16, Final residual = 7.60564707572e-62, No Iterations 30
DILUPBiCGStab:  Solving for ILambda_161_0, Initial residual = 2.72356826977e-16, Final residual = 3.38807582052e-61, No Iterations 31
DILUPBiCGStab:  Solving for ILambda_162_0, Initial residual = 3.27313965671e-16, Final residual = 5.89992023813e-61, No Iterations 29
DILUPBiCGStab:  Solving for ILambda_163_0, Initial residual = 3.41874122979e-16, Final residual = 1.76391134099e-61, No Iterations 28
DILUPBiCGStab:  Solving for ILambda_164_0, Initial residual = 3.03551213994e-16, Final residual = 2.34826944158e-61, No Iterations 28
DILUPBiCGStab:  Solving for ILambda_165_0, Initial residual = 4.31611615262e-16, Final residual = 4.07372683526e-61, No Iterations 26
DILUPBiCGStab:  Solving for ILambda_166_0, Initial residual = 4.05478585037e-16, Final residual = 1.40970045365e-61, No Iterations 25
DILUPBiCGStab:  Solving for ILambda_167_0, Initial residual = 3.76759184404e-16, Final residual = 1.7388338488e-61, No Iterations 21
DILUPBiCGStab:  Solving for ILambda_168_0, Initial residual = 3.70265521914e-16, Final residual = 7.13610737928e-62, No Iterations 2
DILUPBiCGStab:  Solving for ILambda_169_0, Initial residual = 3.70855512293e-16, Final residual = 7.59673325501e-62, No Iterations 2
DILUPBiCGStab:  Solving for ILambda_170_0, Initial residual = 3.81427737431e-16, Final residual = 1.07967542388e-62, No Iterations 2
DILUPBiCGStab:  Solving for ILambda_171_0, Initial residual = 2.51809816053e-16, Final residual = 6.75723358772e-62, No Iterations 2
DILUPBiCGStab:  Solving for ILambda_172_0, Initial residual = 2.4216022765e-16, Final residual = 3.65090264682e-62, No Iterations 2
DILUPBiCGStab:  Solving for ILambda_173_0, Initial residual = 2.38388108504e-16, Final residual = 1.85280336538e-75, No Iterations 2
DILUPBiCGStab:  Solving for ILambda_174_0, Initial residual = 1.86399587958e-16, Final residual = 6.73147837795e-63, No Iterations 2
DILUPBiCGStab:  Solving for ILambda_175_0, Initial residual = 2.34844509454e-16, Final residual = 3.40477293222e-62, No Iterations 2
DILUPBiCGStab:  Solving for ILambda_176_0, Initial residual = 2.50900810537e-16, Final residual = 1.26111829931e-62, No Iterations 2
DILUPBiCGStab:  Solving for ILambda_177_0, Initial residual = 2.91217088098e-16, Final residual = 1.62680325447e-62, No Iterations 2
DILUPBiCGStab:  Solving for ILambda_178_0, Initial residual = 2.83738201582e-16, Final residual = 1.67807455686e-62, No Iterations 2
DILUPBiCGStab:  Solving for ILambda_179_0, Initial residual = 2.91326440587e-16, Final residual = 5.72396057833e-62, No Iterations 2
DILUPBiCGStab:  Solving for ILambda_180_0, Initial residual = 3.15896413763e-16, Final residual = 5.01546098695e-61, No Iterations 19
DILUPBiCGStab:  Solving for ILambda_181_0, Initial residual = 3.70927627893e-16, Final residual = 7.05477155313e-61, No Iterations 24
DILUPBiCGStab:  Solving for ILambda_182_0, Initial residual = 4.04864256038e-16, Final residual = 7.59636282776e-62, No Iterations 27
DILUPBiCGStab:  Solving for ILambda_183_0, Initial residual = 3.16285409392e-16, Final residual = 4.4275273275e-61, No Iterations 27
DILUPBiCGStab:  Solving for ILambda_184_0, Initial residual = 2.62733815866e-16, Final residual = 1.96946017562e-61, No Iterations 31
DILUPBiCGStab:  Solving for ILambda_185_0, Initial residual = 2.13337720508e-16, Final residual = 6.44453761279e-62, No Iterations 30
DILUPBiCGStab:  Solving for ILambda_186_0, Initial residual = 2.36245537436e-16, Final residual = 2.12615299517e-61, No Iterations 31
DILUPBiCGStab:  Solving for ILambda_187_0, Initial residual = 2.07248174661e-16, Final residual = 1.29190260922e-61, No Iterations 31
DILUPBiCGStab:  Solving for ILambda_188_0, Initial residual = 2.6477931927e-16, Final residual = 2.70355985288e-61, No Iterations 27
DILUPBiCGStab:  Solving for ILambda_189_0, Initial residual = 3.91145497863e-16, Final residual = 1.75952679213e-61, No Iterations 27
DILUPBiCGStab:  Solving for ILambda_190_0, Initial residual = 2.76269401054e-16, Final residual = 7.1096345247e-62, No Iterations 24
DILUPBiCGStab:  Solving for ILambda_191_0, Initial residual = 3.34444813949e-16, Final residual = 3.63005602268e-61, No Iterations 19
DILUPBiCGStab:  Solving for ILambda_192_0, Initial residual = 7.02191444367e-17, Final residual = 3.65867153796e-61, No Iterations 6
DILUPBiCGStab:  Solving for ILambda_193_0, Initial residual = 6.75310497608e-17, Final residual = 1.24421130867e-62, No Iterations 5
DILUPBiCGStab:  Solving for ILambda_194_0, Initial residual = 7.67420849684e-17, Final residual = 5.4459417185e-64, No Iterations 6
DILUPBiCGStab:  Solving for ILambda_195_0, Initial residual = 7.13100522337e-17, Final residual = 1.36796609656e-63, No Iterations 5
DILUPBiCGStab:  Solving for ILambda_196_0, Initial residual = 5.92220411394e-17, Final residual = 1.52048520137e-63, No Iterations 6
DILUPBiCGStab:  Solving for ILambda_197_0, Initial residual = 4.6702041504e-17, Final residual = 3.28878599545e-64, No Iterations 6
DILUPBiCGStab:  Solving for ILambda_198_0, Initial residual = 4.78767880685e-17, Final residual = 5.13022696099e-64, No Iterations 6
DILUPBiCGStab:  Solving for ILambda_199_0, Initial residual = 5.7003920774e-17, Final residual = 7.10874167015e-61, No Iterations 5
DILUPBiCGStab:  Solving for ILambda_200_0, Initial residual = 9.49949203363e-17, Final residual = 2.80131598389e-63, No Iterations 5
DILUPBiCGStab:  Solving for ILambda_201_0, Initial residual = 8.92666695052e-17, Final residual = 3.69346937547e-64, No Iterations 5
DILUPBiCGStab:  Solving for ILambda_202_0, Initial residual = 9.69906590379e-17, Final residual = 8.14197527611e-61, No Iterations 5
DILUPBiCGStab:  Solving for ILambda_203_0, Initial residual = 8.0716987415e-17, Final residual = 1.48271691913e-62, No Iterations 5
DILUPBiCGStab:  Solving for ILambda_204_0, Initial residual = 6.7015632743e-17, Final residual = 2.07235762435e-61, No Iterations 19
DILUPBiCGStab:  Solving for ILambda_205_0, Initial residual = 8.02987575617e-17, Final residual = 5.12521980246e-61, No Iterations 24
DILUPBiCGStab:  Solving for ILambda_206_0, Initial residual = 7.68584323206e-17, Final residual = 1.34239359172e-61, No Iterations 24
DILUPBiCGStab:  Solving for ILambda_207_0, Initial residual = 9.25082864705e-17, Final residual = 1.77303221275e-61, No Iterations 30
DILUPBiCGStab:  Solving for ILambda_208_0, Initial residual = 9.54681889244e-17, Final residual = 3.01754252021e-61, No Iterations 30
DILUPBiCGStab:  Solving for ILambda_209_0, Initial residual = 4.73882032802e-17, Final residual = 2.52560174374e-61, No Iterations 31
DILUPBiCGStab:  Solving for ILambda_210_0, Initial residual = 8.77377781396e-17, Final residual = 4.4304523583e-61, No Iterations 29
DILUPBiCGStab:  Solving for ILambda_211_0, Initial residual = 7.43838402942e-17, Final residual = 3.80108285069e-61, No Iterations 32
DILUPBiCGStab:  Solving for ILambda_212_0, Initial residual = 9.63573929232e-17, Final residual = 2.79325316337e-61, No Iterations 29
DILUPBiCGStab:  Solving for ILambda_213_0, Initial residual = 1.07399488803e-16, Final residual = 7.01499933208e-61, No Iterations 28
DILUPBiCGStab:  Solving for ILambda_214_0, Initial residual = 9.10506224058e-17, Final residual = 3.32958135162e-61, No Iterations 22
DILUPBiCGStab:  Solving for ILambda_215_0, Initial residual = 8.93871357003e-17, Final residual = 2.6166713722e-61, No Iterations 20
DILUPBiCGStab:  Solving for ILambda_216_0, Initial residual = 7.10398298516e-17, Final residual = 5.22354948784e-63, No Iterations 2
DILUPBiCGStab:  Solving for ILambda_217_0, Initial residual = 8.37236630344e-17, Final residual = 2.68319193085e-63, No Iterations 2
DILUPBiCGStab:  Solving for ILambda_218_0, Initial residual = 8.53131380373e-17, Final residual = 9.87932660489e-62, No Iterations 2
DILUPBiCGStab:  Solving for ILambda_219_0, Initial residual = 9.77376793066e-17, Final residual = 4.02172002947e-63, No Iterations 2
DILUPBiCGStab:  Solving for ILambda_220_0, Initial residual = 6.64906515649e-17, Final residual = 1.36759954694e-62, No Iterations 2
DILUPBiCGStab:  Solving for ILambda_221_0, Initial residual = 4.87264328523e-17, Final residual = 1.61554901598e-63, No Iterations 2
DILUPBiCGStab:  Solving for ILambda_222_0, Initial residual = 5.3049811712e-17, Final residual = 4.15445445006e-62, No Iterations 2
DILUPBiCGStab:  Solving for ILambda_223_0, Initial residual = 5.31269942063e-17, Final residual = 2.57116893792e-63, No Iterations 2
DILUPBiCGStab:  Solving for ILambda_224_0, Initial residual = 7.71764794874e-17, Final residual = 1.39820931337e-62, No Iterations 2
DILUPBiCGStab:  Solving for ILambda_225_0, Initial residual = 7.42820921287e-17, Final residual = 4.07492647239e-63, No Iterations 2
DILUPBiCGStab:  Solving for ILambda_226_0, Initial residual = 6.62073277572e-17, Final residual = 1.81462464293e-63, No Iterations 2
DILUPBiCGStab:  Solving for ILambda_227_0, Initial residual = 7.37192446835e-17, Final residual = 3.07421805981e-62, No Iterations 2
DILUPBiCGStab:  Solving for ILambda_228_0, Initial residual = 8.84658134905e-17, Final residual = 3.43007589131e-61, No Iterations 19
DILUPBiCGStab:  Solving for ILambda_229_0, Initial residual = 8.63144072259e-17, Final residual = 6.59231145192e-61, No Iterations 23
DILUPBiCGStab:  Solving for ILambda_230_0, Initial residual = 8.95845294518e-17, Final residual = 3.35037401186e-61, No Iterations 27
DILUPBiCGStab:  Solving for ILambda_231_0, Initial residual = 1.03011371612e-16, Final residual = 7.0017350952e-62, No Iterations 28
DILUPBiCGStab:  Solving for ILambda_232_0, Initial residual = 8.14969982608e-17, Final residual = 2.22554851285e-61, No Iterations 29
DILUPBiCGStab:  Solving for ILambda_233_0, Initial residual = 9.17871344469e-17, Final residual = 4.89728081055e-62, No Iterations 31
DILUPBiCGStab:  Solving for ILambda_234_0, Initial residual = 5.21882485742e-17, Final residual = 5.00402853477e-62, No Iterations 28
DILUPBiCGStab:  Solving for ILambda_235_0, Initial residual = 9.68963000923e-17, Final residual = 6.11717033817e-61, No Iterations 29
DILUPBiCGStab:  Solving for ILambda_236_0, Initial residual = 9.91833612833e-17, Final residual = 8.22628534713e-62, No Iterations 30
DILUPBiCGStab:  Solving for ILambda_237_0, Initial residual = 8.14311007584e-17, Final residual = 5.3700891256e-61, No Iterations 28
DILUPBiCGStab:  Solving for ILambda_238_0, Initial residual = 8.32258128414e-17, Final residual = 8.99245716352e-62, No Iterations 23
DILUPBiCGStab:  Solving for ILambda_239_0, Initial residual = 7.21235874329e-17, Final residual = 1.81653208696e-61, No Iterations 18
DILUPBiCGStab:  Solving for ILambda_240_0, Initial residual = 1.20911639609e-17, Final residual = 2.13863846295e-61, No Iterations 5
DILUPBiCGStab:  Solving for ILambda_241_0, Initial residual = 2.11806813539e-17, Final residual = 1.00628218871e-62, No Iterations 6
DILUPBiCGStab:  Solving for ILambda_242_0, Initial residual = 2.96494345553e-17, Final residual = 8.53730053326e-62, No Iterations 5
DILUPBiCGStab:  Solving for ILambda_243_0, Initial residual = 2.93284058084e-17, Final residual = 5.61891799455e-63, No Iterations 5
DILUPBiCGStab:  Solving for ILambda_244_0, Initial residual = 2.725400876e-17, Final residual = 1.40582647327e-61, No Iterations 5
DILUPBiCGStab:  Solving for ILambda_245_0, Initial residual = 3.12878676223e-17, Final residual = 9.92589038714e-63, No Iterations 6
DILUPBiCGStab:  Solving for ILambda_246_0, Initial residual = 2.75817754399e-17, Final residual = 6.34126118364e-64, No Iterations 5
DILUPBiCGStab:  Solving for ILambda_247_0, Initial residual = 2.99734229736e-17, Final residual = 4.90385839377e-61, No Iterations 6
DILUPBiCGStab:  Solving for ILambda_248_0, Initial residual = 3.16805698117e-17, Final residual = 1.35645647466e-61, No Iterations 5
DILUPBiCGStab:  Solving for ILambda_249_0, Initial residual = 3.44717889203e-17, Final residual = 3.72267870413e-64, No Iterations 5
DILUPBiCGStab:  Solving for ILambda_250_0, Initial residual = 2.34768386545e-17, Final residual = 9.6952644744e-65, No Iterations 5
DILUPBiCGStab:  Solving for ILambda_251_0, Initial residual = 1.69642768898e-17, Final residual = 3.76457581363e-63, No Iterations 6
DILUPBiCGStab:  Solving for ILambda_252_0, Initial residual = 1.32237939629e-17, Final residual = 8.96094174813e-62, No Iterations 19
DILUPBiCGStab:  Solving for ILambda_253_0, Initial residual = 2.47145071162e-17, Final residual = 2.37563749818e-61, No Iterations 25
DILUPBiCGStab:  Solving for ILambda_254_0, Initial residual = 3.23095796558e-17, Final residual = 4.35787975781e-62, No Iterations 27
DILUPBiCGStab:  Solving for ILambda_255_0, Initial residual = 3.51008545321e-17, Final residual = 6.28353367164e-61, No Iterations 26
DILUPBiCGStab:  Solving for ILambda_256_0, Initial residual = 3.20120510187e-17, Final residual = 1.52379976067e-61, No Iterations 31
DILUPBiCGStab:  Solving for ILambda_257_0, Initial residual = 3.53126403332e-17, Final residual = 1.79543454954e-61, No Iterations 33
DILUPBiCGStab:  Solving for ILambda_258_0, Initial residual = 3.65498467197e-17, Final residual = 2.77938862165e-61, No Iterations 31
DILUPBiCGStab:  Solving for ILambda_259_0, Initial residual = 3.27001746229e-17, Final residual = 4.41543464432e-61, No Iterations 31
DILUPBiCGStab:  Solving for ILambda_260_0, Initial residual = 3.91608883619e-17, Final residual = 8.02267654496e-61, No Iterations 28
DILUPBiCGStab:  Solving for ILambda_261_0, Initial residual = 3.59835257435e-17, Final residual = 1.39019389442e-61, No Iterations 28
DILUPBiCGStab:  Solving for ILambda_262_0, Initial residual = 2.364724084e-17, Final residual = 7.70005440358e-62, No Iterations 23
DILUPBiCGStab:  Solving for ILambda_263_0, Initial residual = 1.65873669175e-17, Final residual = 1.12172970565e-61, No Iterations 19
DILUPBiCGStab:  Solving for ILambda_264_0, Initial residual = 1.67080043991e-17, Final residual = 1.75642394884e-63, No Iterations 2
DILUPBiCGStab:  Solving for ILambda_265_0, Initial residual = 2.3180017072e-17, Final residual = 6.54997099274e-63, No Iterations 2
DILUPBiCGStab:  Solving for ILambda_266_0, Initial residual = 3.2450803385e-17, Final residual = 1.40837734227e-63, No Iterations 2
DILUPBiCGStab:  Solving for ILambda_267_0, Initial residual = 3.15188076361e-17, Final residual = 1.14278994526e-63, No Iterations 2
DILUPBiCGStab:  Solving for ILambda_268_0, Initial residual = 3.23211036524e-17, Final residual = 7.89865720997e-64, No Iterations 2
DILUPBiCGStab:  Solving for ILambda_269_0, Initial residual = 2.97783156978e-17, Final residual = 1.21275765827e-62, No Iterations 2
DILUPBiCGStab:  Solving for ILambda_270_0, Initial residual = 3.08465260414e-17, Final residual = 2.57353500212e-63, No Iterations 2
DILUPBiCGStab:  Solving for ILambda_271_0, Initial residual = 2.87338584101e-17, Final residual = 2.81427956754e-63, No Iterations 2
DILUPBiCGStab:  Solving for ILambda_272_0, Initial residual = 2.86250616059e-17, Final residual = 1.36354569255e-63, No Iterations 2
DILUPBiCGStab:  Solving for ILambda_273_0, Initial residual = 2.81908065061e-17, Final residual = 4.8725545945e-64, No Iterations 2
DILUPBiCGStab:  Solving for ILambda_274_0, Initial residual = 1.99428216886e-17, Final residual = 1.27713324802e-62, No Iterations 2
DILUPBiCGStab:  Solving for ILambda_275_0, Initial residual = 1.56728025577e-17, Final residual = 2.768957436e-64, No Iterations 2
DILUPBiCGStab:  Solving for ILambda_276_0, Initial residual = 2.11118958815e-17, Final residual = 7.48761097728e-62, No Iterations 19
DILUPBiCGStab:  Solving for ILambda_277_0, Initial residual = 3.01406523755e-17, Final residual = 9.90596793058e-61, No Iterations 25
DILUPBiCGStab:  Solving for ILambda_278_0, Initial residual = 3.73887104125e-17, Final residual = 4.72764535189e-62, No Iterations 28
DILUPBiCGStab:  Solving for ILambda_279_0, Initial residual = 3.60899524207e-17, Final residual = 4.12219446248e-61, No Iterations 26
DILUPBiCGStab:  Solving for ILambda_280_0, Initial residual = 3.7639334432e-17, Final residual = 5.77801558901e-61, No Iterations 29
DILUPBiCGStab:  Solving for ILambda_281_0, Initial residual = 3.91078433223e-17, Final residual = 8.41942864736e-61, No Iterations 29
DILUPBiCGStab:  Solving for ILambda_282_0, Initial residual = 3.32070372742e-17, Final residual = 2.02654210719e-61, No Iterations 29
DILUPBiCGStab:  Solving for ILambda_283_0, Initial residual = 2.87903490968e-17, Final residual = 7.02408871604e-61, No Iterations 28
DILUPBiCGStab:  Solving for ILambda_284_0, Initial residual = 3.82408667345e-17, Final residual = 4.18202769687e-61, No Iterations 29
DILUPBiCGStab:  Solving for ILambda_285_0, Initial residual = 3.35977636937e-17, Final residual = 5.42677669722e-61, No Iterations 26
DILUPBiCGStab:  Solving for ILambda_286_0, Initial residual = 2.42898739361e-17, Final residual = 7.71931159927e-62, No Iterations 25
DILUPBiCGStab:  Solving for ILambda_287_0, Initial residual = 1.84051469105e-17, Final residual = 4.64364827497e-61, No Iterations 19
min/max(T) = 1000, 1000
ExecutionTime = 2.97 s  ClockTime = 3 s

writeObjects writeObjects1.writeObjects write:
    writing object a
    writing object qem
End

