/*---------------------------------------------------------------------------*\
| =========                 |                                                 |
| \\      /  F ield         | OpenFOAM: The Open Source CFD Toolbox           |
|  \\    /   O peration     | Version:  2306                                  |
|   \\  /    A nd           | Website:  www.openfoam.com                      |
|    \\/     M anipulation  |                                                 |
\*---------------------------------------------------------------------------*/
Build  : _fbf00d6b-20230626 OPENFOAM=2306 version=2306
Arch   : "LSB;label=32;scalar=64"
Exec   : fireRADFoam_MaCFP
Date   : Mar 12 2024
Time   : 19:27:49
Host   : pop-os
PID    : 172623
I/O    : uncollated
Case   : /home/rafay/Desktop/Study/Radiative_Heat_Transfer/Local_copy_RHT2324/01_Projects/02_Rafay/Case_1_q1D_SolidAngle/new_case3/th_4-ph_8/tau_0.0001/res_1
nProcs : 1
trapFpe: Floating point exception trapping enabled (FOAM_SIGFPE).
fileModificationChecking : Monitoring run-time modified files using timeStampMaster (fileModificationSkew 5, maxFileModificationPolls 20)
allowSystemOperations : Allowing user-supplied system call operations

// * * * * * * * * * * * * * * * * * * * * * * * * * * * * * * * * * * * * * //
Create time

Create mesh for time = 0


PIMPLE: no residual control data found. Calculations will employ 10 corrector loops

Reading thermophysical properties

Selecting thermodynamics package 
{
    type            hePsiThermo;
    mixture         singleStepReactingMixture;
    transport       sutherland;
    thermo          janaf;
    energy          sensibleEnthalpy;
    equationOfState perfectGas;
    specie          specie;
}

Selecting chemistryReader foamChemistryReader
    elements not defined in "/home/rafay/Desktop/Study/Radiative_Heat_Transfer/Local_copy_RHT2324/01_Projects/02_Rafay/Case_1_q1D_SolidAngle/new_case3/th_4-ph_8/tau_0.0001/res_1/constant/reactions"
Fuel heat of combustion :47168962.4726
stoichiometric air-fuel ratio :14.6914056505
stoichiometric oxygen-fuel ratio :3.42181919285
Maximum products mass concentrations:
    H2O: 0.0818486943001
    CO2: 0.199950099979
    N2: 0.718201205721
Creating component thermo properties:
    multi-component carrier - 6 species
    no liquid components
    no solid components
Creating field rho


Reading field U

Reading/calculating face flux field phi

Selecting radiationModel fvDOM
Selecting absorptionEmissionModel constantAbsorptionEmission
Selecting scatterModel none
Selecting sootModel none
fvDOM : Allocated 128 rays with average orientation:
	I0 : dAve : 	(0.00274192284156 0.0278392098 0.0490873852123) : omega : 	0.0575094490319 : d : 	(0.0375095356919 0.38084070704 0.923879532511)
	I1 : dAve : 	(0.00812039796756 0.0267693645798 0.0490873852123) : omega : 	0.0575094490319 : d : 	(0.111087136655 0.366205212247 0.923879532511)
	I2 : dAve : 	(0.0131868107536 0.0246707876912 0.0490873852123) : omega : 	0.0575094490319 : d : 	(0.180395721254 0.337496656517 0.923879532511)
	I3 : dAve : 	(0.0177464617977 0.0216241262672 0.0490873852123) : omega : 	0.0575094490319 : d : 	(0.242771799453 0.295818293547 0.923879532511)
	I4 : dAve : 	(0.0216241262672 0.0177464617977 0.0490873852123) : omega : 	0.0575094490319 : d : 	(0.295818293547 0.242771799453 0.923879532511)
	I5 : dAve : 	(0.0246707876912 0.0131868107536 0.0490873852123) : omega : 	0.0575094490319 : d : 	(0.337496656517 0.180395721254 0.923879532511)
	I6 : dAve : 	(0.0267693645798 0.00812039796756 0.0490873852123) : omega : 	0.0575094490319 : d : 	(0.366205212247 0.111087136655 0.923879532511)
	I7 : dAve : 	(0.0278392098 0.00274192284156 0.0490873852123) : omega : 	0.0575094490319 : d : 	(0.38084070704 0.0375095356919 0.923879532511)
	I8 : dAve : 	(0.0278392098 -0.00274192284156 0.0490873852123) : omega : 	0.0575094490319 : d : 	(0.38084070704 -0.0375095356919 0.923879532511)
	I9 : dAve : 	(0.0267693645798 -0.00812039796756 0.0490873852123) : omega : 	0.0575094490319 : d : 	(0.366205212247 -0.111087136655 0.923879532511)
	I10 : dAve : 	(0.0246707876912 -0.0131868107536 0.0490873852123) : omega : 	0.0575094490319 : d : 	(0.337496656517 -0.180395721254 0.923879532511)
	I11 : dAve : 	(0.0216241262672 -0.0177464617977 0.0490873852123) : omega : 	0.0575094490319 : d : 	(0.295818293547 -0.242771799453 0.923879532511)
	I12 : dAve : 	(0.0177464617977 -0.0216241262672 0.0490873852123) : omega : 	0.0575094490319 : d : 	(0.242771799453 -0.295818293547 0.923879532511)
	I13 : dAve : 	(0.0131868107536 -0.0246707876912 0.0490873852123) : omega : 	0.0575094490319 : d : 	(0.180395721254 -0.337496656517 0.923879532511)
	I14 : dAve : 	(0.00812039796756 -0.0267693645798 0.0490873852123) : omega : 	0.0575094490319 : d : 	(0.111087136655 -0.366205212247 0.923879532511)
	I15 : dAve : 	(0.00274192284156 -0.0278392098 0.0490873852123) : omega : 	0.0575094490319 : d : 	(0.0375095356919 -0.38084070704 0.923879532511)
	I16 : dAve : 	(-0.00274192284156 -0.0278392098 0.0490873852123) : omega : 	0.0575094490319 : d : 	(-0.0375095356919 -0.38084070704 0.923879532511)
	I17 : dAve : 	(-0.00812039796756 -0.0267693645798 0.0490873852123) : omega : 	0.0575094490319 : d : 	(-0.111087136655 -0.366205212247 0.923879532511)
	I18 : dAve : 	(-0.0131868107536 -0.0246707876912 0.0490873852123) : omega : 	0.0575094490319 : d : 	(-0.180395721254 -0.337496656517 0.923879532511)
	I19 : dAve : 	(-0.0177464617977 -0.0216241262672 0.0490873852123) : omega : 	0.0575094490319 : d : 	(-0.242771799453 -0.295818293547 0.923879532511)
	I20 : dAve : 	(-0.0216241262672 -0.0177464617977 0.0490873852123) : omega : 	0.0575094490319 : d : 	(-0.295818293547 -0.242771799453 0.923879532511)
	I21 : dAve : 	(-0.0246707876912 -0.0131868107536 0.0490873852123) : omega : 	0.0575094490319 : d : 	(-0.337496656517 -0.180395721254 0.923879532511)
	I22 : dAve : 	(-0.0267693645798 -0.00812039796756 0.0490873852123) : omega : 	0.0575094490319 : d : 	(-0.366205212247 -0.111087136655 0.923879532511)
	I23 : dAve : 	(-0.0278392098 -0.00274192284156 0.0490873852123) : omega : 	0.0575094490319 : d : 	(-0.38084070704 -0.0375095356919 0.923879532511)
	I24 : dAve : 	(-0.0278392098 0.00274192284156 0.0490873852123) : omega : 	0.0575094490319 : d : 	(-0.38084070704 0.0375095356919 0.923879532511)
	I25 : dAve : 	(-0.0267693645798 0.00812039796756 0.0490873852123) : omega : 	0.0575094490319 : d : 	(-0.366205212247 0.111087136655 0.923879532511)
	I26 : dAve : 	(-0.0246707876912 0.0131868107536 0.0490873852123) : omega : 	0.0575094490319 : d : 	(-0.337496656517 0.180395721254 0.923879532511)
	I27 : dAve : 	(-0.0216241262672 0.0177464617977 0.0490873852123) : omega : 	0.0575094490319 : d : 	(-0.295818293547 0.242771799453 0.923879532511)
	I28 : dAve : 	(-0.0177464617977 0.0216241262672 0.0490873852123) : omega : 	0.0575094490319 : d : 	(-0.242771799453 0.295818293547 0.923879532511)
	I29 : dAve : 	(-0.0131868107536 0.0246707876912 0.0490873852123) : omega : 	0.0575094490319 : d : 	(-0.180395721254 0.337496656517 0.923879532511)
	I30 : dAve : 	(-0.00812039796756 0.0267693645798 0.0490873852123) : omega : 	0.0575094490319 : d : 	(-0.111087136655 0.366205212247 0.923879532511)
	I31 : dAve : 	(-0.00274192284156 0.0278392098 0.0490873852123) : omega : 	0.0575094490319 : d : 	(-0.0375095356919 0.38084070704 0.923879532511)
	I32 : dAve : 	(0.0123492826399 0.125384370808 0.0490873852123) : omega : 	0.138840091817 : d : 	(0.0905560297858 0.91943080004 0.382683432365)
	I33 : dAve : 	(0.0365732719135 0.120565919754 0.0490873852123) : omega : 	0.138840091817 : d : 	(0.268188071917 0.884097590017 0.382683432365)
	I34 : dAve : 	(0.059391770858 0.111114188018 0.0490873852123) : omega : 	0.138840091817 : d : 	(0.435513796846 0.814789005418 0.382683432365)
	I35 : dAve : 	(0.0799278773557 0.0973924003507 0.0490873852123) : omega : 	0.138840091817 : d : 	(0.586102970801 0.714168536279 0.382683432365)
	I36 : dAve : 	(0.0973924003507 0.0799278773557 0.0490873852123) : omega : 	0.138840091817 : d : 	(0.714168536279 0.586102970801 0.382683432365)
	I37 : dAve : 	(0.111114188018 0.059391770858 0.0490873852123) : omega : 	0.138840091817 : d : 	(0.814789005418 0.435513796846 0.382683432365)
	I38 : dAve : 	(0.120565919754 0.0365732719135 0.0490873852123) : omega : 	0.138840091817 : d : 	(0.884097590017 0.268188071917 0.382683432365)
	I39 : dAve : 	(0.125384370808 0.0123492826399 0.0490873852123) : omega : 	0.138840091817 : d : 	(0.91943080004 0.0905560297858 0.382683432365)
	I40 : dAve : 	(0.125384370808 -0.0123492826399 0.0490873852123) : omega : 	0.138840091817 : d : 	(0.91943080004 -0.0905560297858 0.382683432365)
	I41 : dAve : 	(0.120565919754 -0.0365732719135 0.0490873852123) : omega : 	0.138840091817 : d : 	(0.884097590017 -0.268188071917 0.382683432365)
	I42 : dAve : 	(0.111114188018 -0.059391770858 0.0490873852123) : omega : 	0.138840091817 : d : 	(0.814789005418 -0.435513796846 0.382683432365)
	I43 : dAve : 	(0.0973924003507 -0.0799278773557 0.0490873852123) : omega : 	0.138840091817 : d : 	(0.714168536279 -0.586102970801 0.382683432365)
	I44 : dAve : 	(0.0799278773557 -0.0973924003507 0.0490873852123) : omega : 	0.138840091817 : d : 	(0.586102970801 -0.714168536279 0.382683432365)
	I45 : dAve : 	(0.059391770858 -0.111114188018 0.0490873852123) : omega : 	0.138840091817 : d : 	(0.435513796846 -0.814789005418 0.382683432365)
	I46 : dAve : 	(0.0365732719135 -0.120565919754 0.0490873852123) : omega : 	0.138840091817 : d : 	(0.268188071917 -0.884097590017 0.382683432365)
	I47 : dAve : 	(0.0123492826399 -0.125384370808 0.0490873852123) : omega : 	0.138840091817 : d : 	(0.0905560297858 -0.91943080004 0.382683432365)
	I48 : dAve : 	(-0.0123492826399 -0.125384370808 0.0490873852123) : omega : 	0.138840091817 : d : 	(-0.0905560297858 -0.91943080004 0.382683432365)
	I49 : dAve : 	(-0.0365732719135 -0.120565919754 0.0490873852123) : omega : 	0.138840091817 : d : 	(-0.268188071917 -0.884097590017 0.382683432365)
	I50 : dAve : 	(-0.059391770858 -0.111114188018 0.0490873852123) : omega : 	0.138840091817 : d : 	(-0.435513796846 -0.814789005418 0.382683432365)
	I51 : dAve : 	(-0.0799278773557 -0.0973924003507 0.0490873852123) : omega : 	0.138840091817 : d : 	(-0.586102970801 -0.714168536279 0.382683432365)
	I52 : dAve : 	(-0.0973924003507 -0.0799278773557 0.0490873852123) : omega : 	0.138840091817 : d : 	(-0.714168536279 -0.586102970801 0.382683432365)
	I53 : dAve : 	(-0.111114188018 -0.059391770858 0.0490873852123) : omega : 	0.138840091817 : d : 	(-0.814789005418 -0.435513796846 0.382683432365)
	I54 : dAve : 	(-0.120565919754 -0.0365732719135 0.0490873852123) : omega : 	0.138840091817 : d : 	(-0.884097590017 -0.268188071917 0.382683432365)
	I55 : dAve : 	(-0.125384370808 -0.0123492826399 0.0490873852123) : omega : 	0.138840091817 : d : 	(-0.91943080004 -0.0905560297858 0.382683432365)
	I56 : dAve : 	(-0.125384370808 0.0123492826399 0.0490873852123) : omega : 	0.138840091817 : d : 	(-0.91943080004 0.0905560297858 0.382683432365)
	I57 : dAve : 	(-0.120565919754 0.0365732719135 0.0490873852123) : omega : 	0.138840091817 : d : 	(-0.884097590017 0.268188071917 0.382683432365)
	I58 : dAve : 	(-0.111114188018 0.059391770858 0.0490873852123) : omega : 	0.138840091817 : d : 	(-0.814789005418 0.435513796846 0.382683432365)
	I59 : dAve : 	(-0.0973924003507 0.0799278773557 0.0490873852123) : omega : 	0.138840091817 : d : 	(-0.714168536279 0.586102970801 0.382683432365)
	I60 : dAve : 	(-0.0799278773557 0.0973924003507 0.0490873852123) : omega : 	0.138840091817 : d : 	(-0.586102970801 0.714168536279 0.382683432365)
	I61 : dAve : 	(-0.059391770858 0.111114188018 0.0490873852123) : omega : 	0.138840091817 : d : 	(-0.435513796846 0.814789005418 0.382683432365)
	I62 : dAve : 	(-0.0365732719135 0.120565919754 0.0490873852123) : omega : 	0.138840091817 : d : 	(-0.268188071917 0.884097590017 0.382683432365)
	I63 : dAve : 	(-0.0123492826399 0.125384370808 0.0490873852123) : omega : 	0.138840091817 : d : 	(-0.0905560297858 0.91943080004 0.382683432365)
	I64 : dAve : 	(0.0123492826399 0.125384370808 -0.0490873852123) : omega : 	0.138840091817 : d : 	(0.0905560297858 0.91943080004 -0.382683432365)
	I65 : dAve : 	(0.0365732719135 0.120565919754 -0.0490873852123) : omega : 	0.138840091817 : d : 	(0.268188071917 0.884097590017 -0.382683432365)
	I66 : dAve : 	(0.059391770858 0.111114188018 -0.0490873852123) : omega : 	0.138840091817 : d : 	(0.435513796846 0.814789005418 -0.382683432365)
	I67 : dAve : 	(0.0799278773557 0.0973924003507 -0.0490873852123) : omega : 	0.138840091817 : d : 	(0.586102970801 0.714168536279 -0.382683432365)
	I68 : dAve : 	(0.0973924003507 0.0799278773557 -0.0490873852123) : omega : 	0.138840091817 : d : 	(0.714168536279 0.586102970801 -0.382683432365)
	I69 : dAve : 	(0.111114188018 0.059391770858 -0.0490873852123) : omega : 	0.138840091817 : d : 	(0.814789005418 0.435513796846 -0.382683432365)
	I70 : dAve : 	(0.120565919754 0.0365732719135 -0.0490873852123) : omega : 	0.138840091817 : d : 	(0.884097590017 0.268188071917 -0.382683432365)
	I71 : dAve : 	(0.125384370808 0.0123492826399 -0.0490873852123) : omega : 	0.138840091817 : d : 	(0.91943080004 0.0905560297858 -0.382683432365)
	I72 : dAve : 	(0.125384370808 -0.0123492826399 -0.0490873852123) : omega : 	0.138840091817 : d : 	(0.91943080004 -0.0905560297858 -0.382683432365)
	I73 : dAve : 	(0.120565919754 -0.0365732719135 -0.0490873852123) : omega : 	0.138840091817 : d : 	(0.884097590017 -0.268188071917 -0.382683432365)
	I74 : dAve : 	(0.111114188018 -0.059391770858 -0.0490873852123) : omega : 	0.138840091817 : d : 	(0.814789005418 -0.435513796846 -0.382683432365)
	I75 : dAve : 	(0.0973924003507 -0.0799278773557 -0.0490873852123) : omega : 	0.138840091817 : d : 	(0.714168536279 -0.586102970801 -0.382683432365)
	I76 : dAve : 	(0.0799278773557 -0.0973924003507 -0.0490873852123) : omega : 	0.138840091817 : d : 	(0.586102970801 -0.714168536279 -0.382683432365)
	I77 : dAve : 	(0.059391770858 -0.111114188018 -0.0490873852123) : omega : 	0.138840091817 : d : 	(0.435513796846 -0.814789005418 -0.382683432365)
	I78 : dAve : 	(0.0365732719135 -0.120565919754 -0.0490873852123) : omega : 	0.138840091817 : d : 	(0.268188071917 -0.884097590017 -0.382683432365)
	I79 : dAve : 	(0.0123492826399 -0.125384370808 -0.0490873852123) : omega : 	0.138840091817 : d : 	(0.0905560297858 -0.91943080004 -0.382683432365)
	I80 : dAve : 	(-0.0123492826399 -0.125384370808 -0.0490873852123) : omega : 	0.138840091817 : d : 	(-0.0905560297858 -0.91943080004 -0.382683432365)
	I81 : dAve : 	(-0.0365732719135 -0.120565919754 -0.0490873852123) : omega : 	0.138840091817 : d : 	(-0.268188071917 -0.884097590017 -0.382683432365)
	I82 : dAve : 	(-0.059391770858 -0.111114188018 -0.0490873852123) : omega : 	0.138840091817 : d : 	(-0.435513796846 -0.814789005418 -0.382683432365)
	I83 : dAve : 	(-0.0799278773557 -0.0973924003507 -0.0490873852123) : omega : 	0.138840091817 : d : 	(-0.586102970801 -0.714168536279 -0.382683432365)
	I84 : dAve : 	(-0.0973924003507 -0.0799278773557 -0.0490873852123) : omega : 	0.138840091817 : d : 	(-0.714168536279 -0.586102970801 -0.382683432365)
	I85 : dAve : 	(-0.111114188018 -0.059391770858 -0.0490873852123) : omega : 	0.138840091817 : d : 	(-0.814789005418 -0.435513796846 -0.382683432365)
	I86 : dAve : 	(-0.120565919754 -0.0365732719135 -0.0490873852123) : omega : 	0.138840091817 : d : 	(-0.884097590017 -0.268188071917 -0.382683432365)
	I87 : dAve : 	(-0.125384370808 -0.0123492826399 -0.0490873852123) : omega : 	0.138840091817 : d : 	(-0.91943080004 -0.0905560297858 -0.382683432365)
	I88 : dAve : 	(-0.125384370808 0.0123492826399 -0.0490873852123) : omega : 	0.138840091817 : d : 	(-0.91943080004 0.0905560297858 -0.382683432365)
	I89 : dAve : 	(-0.120565919754 0.0365732719135 -0.0490873852123) : omega : 	0.138840091817 : d : 	(-0.884097590017 0.268188071917 -0.382683432365)
	I90 : dAve : 	(-0.111114188018 0.059391770858 -0.0490873852123) : omega : 	0.138840091817 : d : 	(-0.814789005418 0.435513796846 -0.382683432365)
	I91 : dAve : 	(-0.0973924003507 0.0799278773557 -0.0490873852123) : omega : 	0.138840091817 : d : 	(-0.714168536279 0.586102970801 -0.382683432365)
	I92 : dAve : 	(-0.0799278773557 0.0973924003507 -0.0490873852123) : omega : 	0.138840091817 : d : 	(-0.586102970801 0.714168536279 -0.382683432365)
	I93 : dAve : 	(-0.059391770858 0.111114188018 -0.0490873852123) : omega : 	0.138840091817 : d : 	(-0.435513796846 0.814789005418 -0.382683432365)
	I94 : dAve : 	(-0.0365732719135 0.120565919754 -0.0490873852123) : omega : 	0.138840091817 : d : 	(-0.268188071917 0.884097590017 -0.382683432365)
	I95 : dAve : 	(-0.0123492826399 0.125384370808 -0.0490873852123) : omega : 	0.138840091817 : d : 	(-0.0905560297858 0.91943080004 -0.382683432365)
	I96 : dAve : 	(0.00274192284156 0.0278392098 -0.0490873852123) : omega : 	0.0575094490319 : d : 	(0.0375095356919 0.38084070704 -0.923879532511)
	I97 : dAve : 	(0.00812039796756 0.0267693645798 -0.0490873852123) : omega : 	0.0575094490319 : d : 	(0.111087136655 0.366205212247 -0.923879532511)
	I98 : dAve : 	(0.0131868107536 0.0246707876912 -0.0490873852123) : omega : 	0.0575094490319 : d : 	(0.180395721254 0.337496656517 -0.923879532511)
	I99 : dAve : 	(0.0177464617977 0.0216241262672 -0.0490873852123) : omega : 	0.0575094490319 : d : 	(0.242771799453 0.295818293547 -0.923879532511)
	I100 : dAve : 	(0.0216241262672 0.0177464617977 -0.0490873852123) : omega : 	0.0575094490319 : d : 	(0.295818293547 0.242771799453 -0.923879532511)
	I101 : dAve : 	(0.0246707876912 0.0131868107536 -0.0490873852123) : omega : 	0.0575094490319 : d : 	(0.337496656517 0.180395721254 -0.923879532511)
	I102 : dAve : 	(0.0267693645798 0.00812039796756 -0.0490873852123) : omega : 	0.0575094490319 : d : 	(0.366205212247 0.111087136655 -0.923879532511)
	I103 : dAve : 	(0.0278392098 0.00274192284156 -0.0490873852123) : omega : 	0.0575094490319 : d : 	(0.38084070704 0.0375095356919 -0.923879532511)
	I104 : dAve : 	(0.0278392098 -0.00274192284156 -0.0490873852123) : omega : 	0.0575094490319 : d : 	(0.38084070704 -0.0375095356919 -0.923879532511)
	I105 : dAve : 	(0.0267693645798 -0.00812039796756 -0.0490873852123) : omega : 	0.0575094490319 : d : 	(0.366205212247 -0.111087136655 -0.923879532511)
	I106 : dAve : 	(0.0246707876912 -0.0131868107536 -0.0490873852123) : omega : 	0.0575094490319 : d : 	(0.337496656517 -0.180395721254 -0.923879532511)
	I107 : dAve : 	(0.0216241262672 -0.0177464617977 -0.0490873852123) : omega : 	0.0575094490319 : d : 	(0.295818293547 -0.242771799453 -0.923879532511)
	I108 : dAve : 	(0.0177464617977 -0.0216241262672 -0.0490873852123) : omega : 	0.0575094490319 : d : 	(0.242771799453 -0.295818293547 -0.923879532511)
	I109 : dAve : 	(0.0131868107536 -0.0246707876912 -0.0490873852123) : omega : 	0.0575094490319 : d : 	(0.180395721254 -0.337496656517 -0.923879532511)
	I110 : dAve : 	(0.00812039796756 -0.0267693645798 -0.0490873852123) : omega : 	0.0575094490319 : d : 	(0.111087136655 -0.366205212247 -0.923879532511)
	I111 : dAve : 	(0.00274192284156 -0.0278392098 -0.0490873852123) : omega : 	0.0575094490319 : d : 	(0.0375095356919 -0.38084070704 -0.923879532511)
	I112 : dAve : 	(-0.00274192284156 -0.0278392098 -0.0490873852123) : omega : 	0.0575094490319 : d : 	(-0.0375095356919 -0.38084070704 -0.923879532511)
	I113 : dAve : 	(-0.00812039796756 -0.0267693645798 -0.0490873852123) : omega : 	0.0575094490319 : d : 	(-0.111087136655 -0.366205212247 -0.923879532511)
	I114 : dAve : 	(-0.0131868107536 -0.0246707876912 -0.0490873852123) : omega : 	0.0575094490319 : d : 	(-0.180395721254 -0.337496656517 -0.923879532511)
	I115 : dAve : 	(-0.0177464617977 -0.0216241262672 -0.0490873852123) : omega : 	0.0575094490319 : d : 	(-0.242771799453 -0.295818293547 -0.923879532511)
	I116 : dAve : 	(-0.0216241262672 -0.0177464617977 -0.0490873852123) : omega : 	0.0575094490319 : d : 	(-0.295818293547 -0.242771799453 -0.923879532511)
	I117 : dAve : 	(-0.0246707876912 -0.0131868107536 -0.0490873852123) : omega : 	0.0575094490319 : d : 	(-0.337496656517 -0.180395721254 -0.923879532511)
	I118 : dAve : 	(-0.0267693645798 -0.00812039796756 -0.0490873852123) : omega : 	0.0575094490319 : d : 	(-0.366205212247 -0.111087136655 -0.923879532511)
	I119 : dAve : 	(-0.0278392098 -0.00274192284156 -0.0490873852123) : omega : 	0.0575094490319 : d : 	(-0.38084070704 -0.0375095356919 -0.923879532511)
	I120 : dAve : 	(-0.0278392098 0.00274192284156 -0.0490873852123) : omega : 	0.0575094490319 : d : 	(-0.38084070704 0.0375095356919 -0.923879532511)
	I121 : dAve : 	(-0.0267693645798 0.00812039796756 -0.0490873852123) : omega : 	0.0575094490319 : d : 	(-0.366205212247 0.111087136655 -0.923879532511)
	I122 : dAve : 	(-0.0246707876912 0.0131868107536 -0.0490873852123) : omega : 	0.0575094490319 : d : 	(-0.337496656517 0.180395721254 -0.923879532511)
	I123 : dAve : 	(-0.0216241262672 0.0177464617977 -0.0490873852123) : omega : 	0.0575094490319 : d : 	(-0.295818293547 0.242771799453 -0.923879532511)
	I124 : dAve : 	(-0.0177464617977 0.0216241262672 -0.0490873852123) : omega : 	0.0575094490319 : d : 	(-0.242771799453 0.295818293547 -0.923879532511)
	I125 : dAve : 	(-0.0131868107536 0.0246707876912 -0.0490873852123) : omega : 	0.0575094490319 : d : 	(-0.180395721254 0.337496656517 -0.923879532511)
	I126 : dAve : 	(-0.00812039796756 0.0267693645798 -0.0490873852123) : omega : 	0.0575094490319 : d : 	(-0.111087136655 0.366205212247 -0.923879532511)
	I127 : dAve : 	(-0.00274192284156 0.0278392098 -0.0490873852123) : omega : 	0.0575094490319 : d : 	(-0.0375095356919 0.38084070704 -0.923879532511)
Total omega : 12.5663706144

Courant Number mean: 0 max: 0

Starting time loop

Sampled set:
    data -> csv

Sampled set:
    data -> csv

Sampled surface:
    yNormal -> ensight
        sampledCuttingPlane: yNormal : plane:(0 1 0) (0 0 0) offsets:(0)

Sampled surface:
    zNormal -> ensight
        sampledCuttingPlane: zNormal : plane:(0 0 1) (0 0 0) offsets:(0)

Sampled surface:
    patchAll -> ensight
        sampledPatch: patchAll : patches:(".*WW.*")

deltaT = 1
Time = 1

PIMPLE: iteration 1
Radiation solver iter: 0
DILUPBiCGStab:  Solving for ILambda_0_0, Initial residual = 1, Final residual = 1.54941666744e-61, No Iterations 3
DILUPBiCGStab:  Solving for ILambda_1_0, Initial residual = 1, Final residual = 6.76834283987e-66, No Iterations 3
DILUPBiCGStab:  Solving for ILambda_2_0, Initial residual = 1, Final residual = 7.20472291983e-74, No Iterations 3
DILUPBiCGStab:  Solving for ILambda_3_0, Initial residual = 1, Final residual = 7.03944011158e-64, No Iterations 3
DILUPBiCGStab:  Solving for ILambda_4_0, Initial residual = 1, Final residual = 8.86249525104e-61, No Iterations 3
DILUPBiCGStab:  Solving for ILambda_5_0, Initial residual = 1, Final residual = 2.67627630047e-74, No Iterations 3
DILUPBiCGStab:  Solving for ILambda_6_0, Initial residual = 1, Final residual = 6.07925785207e-64, No Iterations 3
DILUPBiCGStab:  Solving for ILambda_7_0, Initial residual = 1, Final residual = 1.55958649534e-62, No Iterations 3
DILUPBiCGStab:  Solving for ILambda_8_0, Initial residual = 1, Final residual = 2.01380077099e-61, No Iterations 30
DILUPBiCGStab:  Solving for ILambda_9_0, Initial residual = 1, Final residual = 1.06783284772e-61, No Iterations 40
DILUPBiCGStab:  Solving for ILambda_10_0, Initial residual = 1, Final residual = 6.44174460134e-61, No Iterations 45
DILUPBiCGStab:  Solving for ILambda_11_0, Initial residual = 1, Final residual = 8.42465963084e-62, No Iterations 46
DILUPBiCGStab:  Solving for ILambda_12_0, Initial residual = 1, Final residual = 8.66538467195e-62, No Iterations 47
DILUPBiCGStab:  Solving for ILambda_13_0, Initial residual = 1, Final residual = 9.22498751457e-62, No Iterations 44
DILUPBiCGStab:  Solving for ILambda_14_0, Initial residual = 1, Final residual = 2.11065247989e-61, No Iterations 39
DILUPBiCGStab:  Solving for ILambda_15_0, Initial residual = 1, Final residual = 7.08174815439e-61, No Iterations 29
DILUPBiCGStab:  Solving for ILambda_16_0, Initial residual = 1, Final residual = 1.01147850488e-63, No Iterations 12
DILUPBiCGStab:  Solving for ILambda_17_0, Initial residual = 1, Final residual = 1.67679482535e-61, No Iterations 12
DILUPBiCGStab:  Solving for ILambda_18_0, Initial residual = 1, Final residual = 5.85544785994e-62, No Iterations 12
DILUPBiCGStab:  Solving for ILambda_19_0, Initial residual = 1, Final residual = 5.12580147522e-63, No Iterations 12
DILUPBiCGStab:  Solving for ILambda_20_0, Initial residual = 1, Final residual = 5.57696159867e-62, No Iterations 11
DILUPBiCGStab:  Solving for ILambda_21_0, Initial residual = 1, Final residual = 1.33786588054e-64, No Iterations 13
DILUPBiCGStab:  Solving for ILambda_22_0, Initial residual = 1, Final residual = 2.43316117713e-62, No Iterations 13
DILUPBiCGStab:  Solving for ILambda_23_0, Initial residual = 1, Final residual = 1.64558469078e-62, No Iterations 12
DILUPBiCGStab:  Solving for ILambda_24_0, Initial residual = 1, Final residual = 8.27388072558e-62, No Iterations 30
DILUPBiCGStab:  Solving for ILambda_25_0, Initial residual = 1, Final residual = 1.02716386174e-61, No Iterations 39
DILUPBiCGStab:  Solving for ILambda_26_0, Initial residual = 1, Final residual = 2.95229686212e-61, No Iterations 43
DILUPBiCGStab:  Solving for ILambda_27_0, Initial residual = 1, Final residual = 1.38572227725e-61, No Iterations 45
DILUPBiCGStab:  Solving for ILambda_28_0, Initial residual = 1, Final residual = 8.68616857473e-61, No Iterations 45
DILUPBiCGStab:  Solving for ILambda_29_0, Initial residual = 1, Final residual = 4.19126026528e-61, No Iterations 45
DILUPBiCGStab:  Solving for ILambda_30_0, Initial residual = 1, Final residual = 8.68495473418e-62, No Iterations 39
DILUPBiCGStab:  Solving for ILambda_31_0, Initial residual = 1, Final residual = 7.76723551244e-62, No Iterations 30
DILUPBiCGStab:  Solving for ILambda_32_0, Initial residual = 1, Final residual = 5.80267380844e-64, No Iterations 3
DILUPBiCGStab:  Solving for ILambda_33_0, Initial residual = 1, Final residual = 4.0073140436e-61, No Iterations 3
DILUPBiCGStab:  Solving for ILambda_34_0, Initial residual = 1, Final residual = 2.08267241141e-63, No Iterations 3
DILUPBiCGStab:  Solving for ILambda_35_0, Initial residual = 1, Final residual = 7.5656915326e-72, No Iterations 3
DILUPBiCGStab:  Solving for ILambda_36_0, Initial residual = 1, Final residual = 3.17449173541e-71, No Iterations 3
DILUPBiCGStab:  Solving for ILambda_37_0, Initial residual = 1, Final residual = 4.76159511648e-73, No Iterations 3
DILUPBiCGStab:  Solving for ILambda_38_0, Initial residual = 1, Final residual = 1.11375041339e-73, No Iterations 3
DILUPBiCGStab:  Solving for ILambda_39_0, Initial residual = 1, Final residual = 4.3187483303e-62, No Iterations 3
DILUPBiCGStab:  Solving for ILambda_40_0, Initial residual = 1, Final residual = 5.94128318282e-61, No Iterations 30
DILUPBiCGStab:  Solving for ILambda_41_0, Initial residual = 1, Final residual = 1.57510055521e-61, No Iterations 40
DILUPBiCGStab:  Solving for ILambda_42_0, Initial residual = 1, Final residual = 2.36019303583e-61, No Iterations 45
DILUPBiCGStab:  Solving for ILambda_43_0, Initial residual = 1, Final residual = 1.73263802316e-61, No Iterations 45
DILUPBiCGStab:  Solving for ILambda_44_0, Initial residual = 1, Final residual = 2.34802504965e-61, No Iterations 46
DILUPBiCGStab:  Solving for ILambda_45_0, Initial residual = 1, Final residual = 9.75113334651e-61, No Iterations 43
DILUPBiCGStab:  Solving for ILambda_46_0, Initial residual = 1, Final residual = 8.29779000642e-62, No Iterations 39
DILUPBiCGStab:  Solving for ILambda_47_0, Initial residual = 1, Final residual = 5.9781884064e-61, No Iterations 30
DILUPBiCGStab:  Solving for ILambda_48_0, Initial residual = 1, Final residual = 2.09494284078e-61, No Iterations 14
DILUPBiCGStab:  Solving for ILambda_49_0, Initial residual = 1, Final residual = 2.4994464415e-61, No Iterations 11
DILUPBiCGStab:  Solving for ILambda_50_0, Initial residual = 1, Final residual = 2.74819420036e-61, No Iterations 14
DILUPBiCGStab:  Solving for ILambda_51_0, Initial residual = 1, Final residual = 1.14774099038e-63, No Iterations 13
DILUPBiCGStab:  Solving for ILambda_52_0, Initial residual = 1, Final residual = 2.29832959154e-63, No Iterations 13
DILUPBiCGStab:  Solving for ILambda_53_0, Initial residual = 1, Final residual = 2.38319400103e-64, No Iterations 11
DILUPBiCGStab:  Solving for ILambda_54_0, Initial residual = 1, Final residual = 3.46458396473e-61, No Iterations 14
DILUPBiCGStab:  Solving for ILambda_55_0, Initial residual = 1, Final residual = 1.33645053907e-65, No Iterations 13
DILUPBiCGStab:  Solving for ILambda_56_0, Initial residual = 1, Final residual = 8.52507459954e-62, No Iterations 30
DILUPBiCGStab:  Solving for ILambda_57_0, Initial residual = 1, Final residual = 5.15779974564e-61, No Iterations 39
DILUPBiCGStab:  Solving for ILambda_58_0, Initial residual = 1, Final residual = 1.97368989004e-61, No Iterations 43
DILUPBiCGStab:  Solving for ILambda_59_0, Initial residual = 1, Final residual = 7.91846858368e-61, No Iterations 47
DILUPBiCGStab:  Solving for ILambda_60_0, Initial residual = 1, Final residual = 1.17800455318e-61, No Iterations 48
DILUPBiCGStab:  Solving for ILambda_61_0, Initial residual = 1, Final residual = 9.09703089947e-61, No Iterations 44
DILUPBiCGStab:  Solving for ILambda_62_0, Initial residual = 1, Final residual = 1.60897461862e-61, No Iterations 40
DILUPBiCGStab:  Solving for ILambda_63_0, Initial residual = 1, Final residual = 4.66850594519e-61, No Iterations 31
DILUPBiCGStab:  Solving for ILambda_64_0, Initial residual = 1, Final residual = 3.20068098051e-62, No Iterations 14
DILUPBiCGStab:  Solving for ILambda_65_0, Initial residual = 1, Final residual = 1.92846674532e-61, No Iterations 17
DILUPBiCGStab:  Solving for ILambda_66_0, Initial residual = 1, Final residual = 2.5294823426e-61, No Iterations 12
DILUPBiCGStab:  Solving for ILambda_67_0, Initial residual = 1, Final residual = 8.64020921114e-62, No Iterations 23
DILUPBiCGStab:  Solving for ILambda_68_0, Initial residual = 1, Final residual = 9.66492530543e-62, No Iterations 22
DILUPBiCGStab:  Solving for ILambda_69_0, Initial residual = 1, Final residual = 6.84515603708e-61, No Iterations 20
DILUPBiCGStab:  Solving for ILambda_70_0, Initial residual = 1, Final residual = 3.24176812887e-61, No Iterations 19
DILUPBiCGStab:  Solving for ILambda_71_0, Initial residual = 1, Final residual = 9.15627821301e-63, No Iterations 14
DILUPBiCGStab:  Solving for ILambda_72_0, Initial residual = 1, Final residual = 3.43390714997e-61, No Iterations 31
DILUPBiCGStab:  Solving for ILambda_73_0, Initial residual = 1, Final residual = 4.67435962433e-61, No Iterations 40
DILUPBiCGStab:  Solving for ILambda_74_0, Initial residual = 1, Final residual = 1.73893116431e-61, No Iterations 43
DILUPBiCGStab:  Solving for ILambda_75_0, Initial residual = 1, Final residual = 6.95942924178e-62, No Iterations 45
DILUPBiCGStab:  Solving for ILambda_76_0, Initial residual = 1, Final residual = 2.3709007548e-61, No Iterations 46
DILUPBiCGStab:  Solving for ILambda_77_0, Initial residual = 1, Final residual = 2.56038844956e-61, No Iterations 44
DILUPBiCGStab:  Solving for ILambda_78_0, Initial residual = 1, Final residual = 4.25627673891e-61, No Iterations 40
DILUPBiCGStab:  Solving for ILambda_79_0, Initial residual = 1, Final residual = 8.76862928189e-62, No Iterations 31
DILUPBiCGStab:  Solving for ILambda_80_0, Initial residual = 1, Final residual = 4.5638902529e-75, No Iterations 3
DILUPBiCGStab:  Solving for ILambda_81_0, Initial residual = 1, Final residual = 7.2408900585e-61, No Iterations 3
DILUPBiCGStab:  Solving for ILambda_82_0, Initial residual = 1, Final residual = 1.07579459205e-73, No Iterations 3
DILUPBiCGStab:  Solving for ILambda_83_0, Initial residual = 1, Final residual = 7.85156181591e-62, No Iterations 3
DILUPBiCGStab:  Solving for ILambda_84_0, Initial residual = 1, Final residual = 2.63348755612e-61, No Iterations 3
DILUPBiCGStab:  Solving for ILambda_85_0, Initial residual = 1, Final residual = 2.5663252451e-62, No Iterations 3
DILUPBiCGStab:  Solving for ILambda_86_0, Initial residual = 1, Final residual = 2.8415115055e-64, No Iterations 3
DILUPBiCGStab:  Solving for ILambda_87_0, Initial residual = 1, Final residual = 3.1305348367e-65, No Iterations 3
DILUPBiCGStab:  Solving for ILambda_88_0, Initial residual = 1, Final residual = 1.20621215579e-61, No Iterations 31
DILUPBiCGStab:  Solving for ILambda_89_0, Initial residual = 1, Final residual = 1.46218135481e-61, No Iterations 41
DILUPBiCGStab:  Solving for ILambda_90_0, Initial residual = 1, Final residual = 1.72108269954e-61, No Iterations 45
DILUPBiCGStab:  Solving for ILambda_91_0, Initial residual = 1, Final residual = 4.92415635138e-62, No Iterations 46
DILUPBiCGStab:  Solving for ILambda_92_0, Initial residual = 1, Final residual = 5.00578574831e-62, No Iterations 46
DILUPBiCGStab:  Solving for ILambda_93_0, Initial residual = 1, Final residual = 6.10495809314e-61, No Iterations 43
DILUPBiCGStab:  Solving for ILambda_94_0, Initial residual = 1, Final residual = 6.83203653204e-62, No Iterations 41
DILUPBiCGStab:  Solving for ILambda_95_0, Initial residual = 1, Final residual = 7.47287993153e-61, No Iterations 31
DILUPBiCGStab:  Solving for ILambda_96_0, Initial residual = 1, Final residual = 1.27475254735e-63, No Iterations 16
DILUPBiCGStab:  Solving for ILambda_97_0, Initial residual = 1, Final residual = 7.62710647367e-61, No Iterations 13
DILUPBiCGStab:  Solving for ILambda_98_0, Initial residual = 1, Final residual = 7.18919841142e-65, No Iterations 13
DILUPBiCGStab:  Solving for ILambda_99_0, Initial residual = 1, Final residual = 3.11708519622e-62, No Iterations 16
DILUPBiCGStab:  Solving for ILambda_100_0, Initial residual = 1, Final residual = 8.52514960395e-61, No Iterations 15
DILUPBiCGStab:  Solving for ILambda_101_0, Initial residual = 1, Final residual = 4.41273624029e-62, No Iterations 12
DILUPBiCGStab:  Solving for ILambda_102_0, Initial residual = 1, Final residual = 4.44087154069e-62, No Iterations 13
DILUPBiCGStab:  Solving for ILambda_103_0, Initial residual = 1, Final residual = 7.11257075002e-63, No Iterations 14
DILUPBiCGStab:  Solving for ILambda_104_0, Initial residual = 1, Final residual = 5.90865501749e-61, No Iterations 31
DILUPBiCGStab:  Solving for ILambda_105_0, Initial residual = 1, Final residual = 2.30006947597e-61, No Iterations 40
DILUPBiCGStab:  Solving for ILambda_106_0, Initial residual = 1, Final residual = 1.93899000151e-61, No Iterations 46
DILUPBiCGStab:  Solving for ILambda_107_0, Initial residual = 1, Final residual = 4.62357660841e-61, No Iterations 45
DILUPBiCGStab:  Solving for ILambda_108_0, Initial residual = 1, Final residual = 1.57901802958e-61, No Iterations 45
DILUPBiCGStab:  Solving for ILambda_109_0, Initial residual = 1, Final residual = 1.43251151536e-61, No Iterations 44
DILUPBiCGStab:  Solving for ILambda_110_0, Initial residual = 1, Final residual = 8.14226109492e-61, No Iterations 40
DILUPBiCGStab:  Solving for ILambda_111_0, Initial residual = 1, Final residual = 4.10149413261e-62, No Iterations 31
DILUPBiCGStab:  Solving for ILambda_112_0, Initial residual = 1, Final residual = 1.64192111727e-64, No Iterations 3
DILUPBiCGStab:  Solving for ILambda_113_0, Initial residual = 1, Final residual = 2.32095680993e-68, No Iterations 3
DILUPBiCGStab:  Solving for ILambda_114_0, Initial residual = 1, Final residual = 4.69870391764e-62, No Iterations 3
DILUPBiCGStab:  Solving for ILambda_115_0, Initial residual = 1, Final residual = 5.70351353058e-66, No Iterations 3
DILUPBiCGStab:  Solving for ILambda_116_0, Initial residual = 1, Final residual = 2.15679427979e-63, No Iterations 3
DILUPBiCGStab:  Solving for ILambda_117_0, Initial residual = 1, Final residual = 8.28707577606e-62, No Iterations 3
DILUPBiCGStab:  Solving for ILambda_118_0, Initial residual = 1, Final residual = 4.03352296867e-68, No Iterations 3
DILUPBiCGStab:  Solving for ILambda_119_0, Initial residual = 1, Final residual = 1.28894369495e-64, No Iterations 3
DILUPBiCGStab:  Solving for ILambda_120_0, Initial residual = 1, Final residual = 1.87352261018e-62, No Iterations 31
DILUPBiCGStab:  Solving for ILambda_121_0, Initial residual = 1, Final residual = 1.06062804604e-61, No Iterations 40
DILUPBiCGStab:  Solving for ILambda_122_0, Initial residual = 1, Final residual = 4.69774223798e-61, No Iterations 44
DILUPBiCGStab:  Solving for ILambda_123_0, Initial residual = 1, Final residual = 6.1046535041e-62, No Iterations 46
DILUPBiCGStab:  Solving for ILambda_124_0, Initial residual = 1, Final residual = 3.43067482359e-61, No Iterations 45
DILUPBiCGStab:  Solving for ILambda_125_0, Initial residual = 1, Final residual = 8.47798995245e-62, No Iterations 43
DILUPBiCGStab:  Solving for ILambda_126_0, Initial residual = 1, Final residual = 4.30748093405e-61, No Iterations 40
DILUPBiCGStab:  Solving for ILambda_127_0, Initial residual = 1, Final residual = 2.20696704806e-61, No Iterations 31
Radiation solver iter: 1
DILUPBiCGStab:  Solving for ILambda_0_0, Initial residual = 3.7846270435e-17, Final residual = 7.01181879309e-63, No Iterations 2
DILUPBiCGStab:  Solving for ILambda_1_0, Initial residual = 4.27591125378e-17, Final residual = 1.70047490478e-62, No Iterations 2
DILUPBiCGStab:  Solving for ILambda_2_0, Initial residual = 4.16697489749e-17, Final residual = 2.41930901768e-63, No Iterations 2
DILUPBiCGStab:  Solving for ILambda_3_0, Initial residual = 4.40412517555e-17, Final residual = 3.57336427933e-63, No Iterations 2
DILUPBiCGStab:  Solving for ILambda_4_0, Initial residual = 4.34962021728e-17, Final residual = 2.72911183277e-63, No Iterations 2
DILUPBiCGStab:  Solving for ILambda_5_0, Initial residual = 4.33411095483e-17, Final residual = 6.46392719524e-63, No Iterations 2
DILUPBiCGStab:  Solving for ILambda_6_0, Initial residual = 4.53894969405e-17, Final residual = 4.75664722055e-63, No Iterations 2
DILUPBiCGStab:  Solving for ILambda_7_0, Initial residual = 4.14041566397e-17, Final residual = 1.07794099421e-63, No Iterations 2
DILUPBiCGStab:  Solving for ILambda_8_0, Initial residual = 1.05014330903e-16, Final residual = 4.35579325891e-61, No Iterations 19
DILUPBiCGStab:  Solving for ILambda_9_0, Initial residual = 2.4223856427e-15, Final residual = 2.96115851121e-61, No Iterations 25
DILUPBiCGStab:  Solving for ILambda_10_0, Initial residual = 2.62038868286e-15, Final residual = 5.21144214705e-62, No Iterations 28
DILUPBiCGStab:  Solving for ILambda_11_0, Initial residual = 3.11636884669e-15, Final residual = 3.10992260116e-61, No Iterations 29
DILUPBiCGStab:  Solving for ILambda_12_0, Initial residual = 1.96765580164e-15, Final residual = 1.67385931338e-61, No Iterations 28
DILUPBiCGStab:  Solving for ILambda_13_0, Initial residual = 3.94977474339e-16, Final residual = 2.10335530478e-61, No Iterations 25
DILUPBiCGStab:  Solving for ILambda_14_0, Initial residual = 2.83005310459e-16, Final residual = 3.21125037599e-61, No Iterations 25
DILUPBiCGStab:  Solving for ILambda_15_0, Initial residual = 8.03644240265e-17, Final residual = 3.21131050096e-62, No Iterations 21
DILUPBiCGStab:  Solving for ILambda_16_0, Initial residual = 8.65205352613e-17, Final residual = 8.02045436596e-63, No Iterations 6
DILUPBiCGStab:  Solving for ILambda_17_0, Initial residual = 9.23123665795e-17, Final residual = 8.34852136284e-62, No Iterations 6
DILUPBiCGStab:  Solving for ILambda_18_0, Initial residual = 9.49231605865e-17, Final residual = 6.56420033883e-61, No Iterations 6
DILUPBiCGStab:  Solving for ILambda_19_0, Initial residual = 9.57582393787e-17, Final residual = 1.22904907778e-61, No Iterations 6
DILUPBiCGStab:  Solving for ILambda_20_0, Initial residual = 8.77268782101e-17, Final residual = 1.5766069245e-62, No Iterations 7
DILUPBiCGStab:  Solving for ILambda_21_0, Initial residual = 8.95777178258e-17, Final residual = 1.41626270072e-62, No Iterations 6
DILUPBiCGStab:  Solving for ILambda_22_0, Initial residual = 9.24485645768e-17, Final residual = 3.43455457397e-63, No Iterations 6
DILUPBiCGStab:  Solving for ILambda_23_0, Initial residual = 8.55265185289e-17, Final residual = 4.17556600914e-61, No Iterations 6
DILUPBiCGStab:  Solving for ILambda_24_0, Initial residual = 8.54075846177e-17, Final residual = 1.43398860711e-61, No Iterations 20
DILUPBiCGStab:  Solving for ILambda_25_0, Initial residual = 3.15980761079e-16, Final residual = 4.43413016029e-61, No Iterations 25
DILUPBiCGStab:  Solving for ILambda_26_0, Initial residual = 4.08254491266e-16, Final residual = 6.81364857162e-62, No Iterations 30
DILUPBiCGStab:  Solving for ILambda_27_0, Initial residual = 1.95019747141e-15, Final residual = 8.80119882793e-61, No Iterations 27
DILUPBiCGStab:  Solving for ILambda_28_0, Initial residual = 3.04611801159e-15, Final residual = 1.36910123633e-61, No Iterations 29
DILUPBiCGStab:  Solving for ILambda_29_0, Initial residual = 2.6381865056e-15, Final residual = 2.64390897139e-62, No Iterations 28
DILUPBiCGStab:  Solving for ILambda_30_0, Initial residual = 2.38687573077e-15, Final residual = 1.9601746836e-61, No Iterations 25
DILUPBiCGStab:  Solving for ILambda_31_0, Initial residual = 1.04679690191e-16, Final residual = 4.85921558816e-62, No Iterations 20
DILUPBiCGStab:  Solving for ILambda_32_0, Initial residual = 2.06434529253e-16, Final residual = 1.93750201853e-62, No Iterations 2
DILUPBiCGStab:  Solving for ILambda_33_0, Initial residual = 2.01151469302e-16, Final residual = 7.92673388669e-63, No Iterations 2
DILUPBiCGStab:  Solving for ILambda_34_0, Initial residual = 1.81512863727e-16, Final residual = 1.23552059927e-62, No Iterations 2
DILUPBiCGStab:  Solving for ILambda_35_0, Initial residual = 1.67501739409e-16, Final residual = 7.34508215444e-63, No Iterations 2
DILUPBiCGStab:  Solving for ILambda_36_0, Initial residual = 1.8030742634e-16, Final residual = 1.38006292259e-62, No Iterations 2
DILUPBiCGStab:  Solving for ILambda_37_0, Initial residual = 1.85596700407e-16, Final residual = 5.15988230568e-63, No Iterations 2
DILUPBiCGStab:  Solving for ILambda_38_0, Initial residual = 2.48859885395e-16, Final residual = 1.38884132515e-61, No Iterations 2
DILUPBiCGStab:  Solving for ILambda_39_0, Initial residual = 2.30806782038e-16, Final residual = 1.34086036616e-62, No Iterations 2
DILUPBiCGStab:  Solving for ILambda_40_0, Initial residual = 3.13578187193e-15, Final residual = 8.83218181841e-61, No Iterations 20
DILUPBiCGStab:  Solving for ILambda_41_0, Initial residual = 9.31937744668e-15, Final residual = 3.51111716883e-61, No Iterations 25
DILUPBiCGStab:  Solving for ILambda_42_0, Initial residual = 7.2589354575e-15, Final residual = 4.35491753951e-61, No Iterations 28
DILUPBiCGStab:  Solving for ILambda_43_0, Initial residual = 1.90546811955e-14, Final residual = 4.83550156057e-61, No Iterations 29
DILUPBiCGStab:  Solving for ILambda_44_0, Initial residual = 9.96738385615e-15, Final residual = 3.91926806348e-61, No Iterations 30
DILUPBiCGStab:  Solving for ILambda_45_0, Initial residual = 1.91648657232e-15, Final residual = 1.08452921586e-61, No Iterations 27
DILUPBiCGStab:  Solving for ILambda_46_0, Initial residual = 9.67758022958e-16, Final residual = 4.38670792069e-61, No Iterations 24
DILUPBiCGStab:  Solving for ILambda_47_0, Initial residual = 4.36280927793e-16, Final residual = 3.02474424763e-61, No Iterations 20
DILUPBiCGStab:  Solving for ILambda_48_0, Initial residual = 5.85480521237e-16, Final residual = 3.71181005508e-62, No Iterations 6
DILUPBiCGStab:  Solving for ILambda_49_0, Initial residual = 6.00710201632e-16, Final residual = 3.90059099634e-65, No Iterations 7
DILUPBiCGStab:  Solving for ILambda_50_0, Initial residual = 5.62026990824e-16, Final residual = 7.98979377081e-62, No Iterations 7
DILUPBiCGStab:  Solving for ILambda_51_0, Initial residual = 5.75789481499e-16, Final residual = 2.94611019671e-61, No Iterations 7
DILUPBiCGStab:  Solving for ILambda_52_0, Initial residual = 5.57065035968e-16, Final residual = 8.04517260639e-66, No Iterations 7
DILUPBiCGStab:  Solving for ILambda_53_0, Initial residual = 5.4337260546e-16, Final residual = 8.01484094418e-61, No Iterations 7
DILUPBiCGStab:  Solving for ILambda_54_0, Initial residual = 5.65482415835e-16, Final residual = 5.83349146039e-64, No Iterations 7
DILUPBiCGStab:  Solving for ILambda_55_0, Initial residual = 5.30160175491e-16, Final residual = 4.38060361302e-65, No Iterations 6
DILUPBiCGStab:  Solving for ILambda_56_0, Initial residual = 4.30538851884e-16, Final residual = 1.49167456917e-61, No Iterations 20
DILUPBiCGStab:  Solving for ILambda_57_0, Initial residual = 9.71878783162e-16, Final residual = 1.45236060802e-61, No Iterations 25
DILUPBiCGStab:  Solving for ILambda_58_0, Initial residual = 1.84339033116e-15, Final residual = 3.52889589776e-61, No Iterations 27
DILUPBiCGStab:  Solving for ILambda_59_0, Initial residual = 9.98484278918e-15, Final residual = 6.15275587286e-61, No Iterations 28
DILUPBiCGStab:  Solving for ILambda_60_0, Initial residual = 1.88718962918e-14, Final residual = 2.98537384391e-61, No Iterations 31
DILUPBiCGStab:  Solving for ILambda_61_0, Initial residual = 7.25452818411e-15, Final residual = 2.45695723071e-61, No Iterations 28
DILUPBiCGStab:  Solving for ILambda_62_0, Initial residual = 8.9707232622e-15, Final residual = 4.07876327746e-62, No Iterations 26
DILUPBiCGStab:  Solving for ILambda_63_0, Initial residual = 4.11636190847e-15, Final residual = 2.46222943883e-61, No Iterations 21
DILUPBiCGStab:  Solving for ILambda_64_0, Initial residual = 2.46123518464e-16, Final residual = 7.3493951757e-61, No Iterations 5
DILUPBiCGStab:  Solving for ILambda_65_0, Initial residual = 2.86467778131e-16, Final residual = 3.38669299577e-65, No Iterations 6
DILUPBiCGStab:  Solving for ILambda_66_0, Initial residual = 3.05104572773e-16, Final residual = 1.84163590942e-64, No Iterations 5
DILUPBiCGStab:  Solving for ILambda_67_0, Initial residual = 2.79117462717e-16, Final residual = 8.99564759649e-63, No Iterations 6
DILUPBiCGStab:  Solving for ILambda_68_0, Initial residual = 2.86341966205e-16, Final residual = 5.80233459463e-61, No Iterations 5
DILUPBiCGStab:  Solving for ILambda_69_0, Initial residual = 2.8198528208e-16, Final residual = 7.59507828026e-64, No Iterations 5
DILUPBiCGStab:  Solving for ILambda_70_0, Initial residual = 2.79188208025e-16, Final residual = 7.60903503859e-64, No Iterations 5
DILUPBiCGStab:  Solving for ILambda_71_0, Initial residual = 2.77058519296e-16, Final residual = 9.41164788846e-64, No Iterations 6
DILUPBiCGStab:  Solving for ILambda_72_0, Initial residual = 4.60160629644e-16, Final residual = 4.39438408185e-61, No Iterations 21
DILUPBiCGStab:  Solving for ILambda_73_0, Initial residual = 8.0676504315e-16, Final residual = 4.75859379613e-61, No Iterations 26
DILUPBiCGStab:  Solving for ILambda_74_0, Initial residual = 9.32352862418e-15, Final residual = 3.67137503979e-61, No Iterations 28
DILUPBiCGStab:  Solving for ILambda_75_0, Initial residual = 3.3122836893e-15, Final residual = 7.14285128099e-61, No Iterations 29
DILUPBiCGStab:  Solving for ILambda_76_0, Initial residual = 4.10273430659e-15, Final residual = 1.52118637672e-61, No Iterations 31
DILUPBiCGStab:  Solving for ILambda_77_0, Initial residual = 2.62189686715e-15, Final residual = 4.24147407188e-61, No Iterations 28
DILUPBiCGStab:  Solving for ILambda_78_0, Initial residual = 4.85714074147e-16, Final residual = 2.89023323558e-61, No Iterations 28
DILUPBiCGStab:  Solving for ILambda_79_0, Initial residual = 3.19493632129e-16, Final residual = 1.8208596962e-62, No Iterations 22
DILUPBiCGStab:  Solving for ILambda_80_0, Initial residual = 2.35240707081e-16, Final residual = 3.35191107058e-62, No Iterations 2
DILUPBiCGStab:  Solving for ILambda_81_0, Initial residual = 2.37625849048e-16, Final residual = 5.02846396417e-62, No Iterations 2
DILUPBiCGStab:  Solving for ILambda_82_0, Initial residual = 1.77810111631e-16, Final residual = 6.42469611354e-63, No Iterations 2
DILUPBiCGStab:  Solving for ILambda_83_0, Initial residual = 1.82604274761e-16, Final residual = 4.91618990328e-63, No Iterations 2
DILUPBiCGStab:  Solving for ILambda_84_0, Initial residual = 1.85433062045e-16, Final residual = 5.60394386798e-63, No Iterations 2
DILUPBiCGStab:  Solving for ILambda_85_0, Initial residual = 1.76555699583e-16, Final residual = 9.27972642116e-63, No Iterations 2
DILUPBiCGStab:  Solving for ILambda_86_0, Initial residual = 2.01457373717e-16, Final residual = 3.51808343287e-62, No Iterations 2
DILUPBiCGStab:  Solving for ILambda_87_0, Initial residual = 1.87112875408e-16, Final residual = 7.88552362209e-63, No Iterations 2
DILUPBiCGStab:  Solving for ILambda_88_0, Initial residual = 3.50954830405e-16, Final residual = 1.85634270848e-61, No Iterations 20
DILUPBiCGStab:  Solving for ILambda_89_0, Initial residual = 4.94647740739e-16, Final residual = 2.35443093992e-61, No Iterations 26
DILUPBiCGStab:  Solving for ILambda_90_0, Initial residual = 2.41989356484e-15, Final residual = 3.27067033969e-61, No Iterations 30
DILUPBiCGStab:  Solving for ILambda_91_0, Initial residual = 3.75439552297e-15, Final residual = 3.12172312036e-61, No Iterations 33
DILUPBiCGStab:  Solving for ILambda_92_0, Initial residual = 3.38772128679e-15, Final residual = 4.59875973143e-62, No Iterations 32
DILUPBiCGStab:  Solving for ILambda_93_0, Initial residual = 9.8278751962e-15, Final residual = 2.86299667949e-61, No Iterations 29
DILUPBiCGStab:  Solving for ILambda_94_0, Initial residual = 7.73174002119e-16, Final residual = 4.46683597995e-61, No Iterations 28
DILUPBiCGStab:  Solving for ILambda_95_0, Initial residual = 4.91989209583e-16, Final residual = 9.5599186787e-61, No Iterations 21
DILUPBiCGStab:  Solving for ILambda_96_0, Initial residual = 5.13148361286e-17, Final residual = 1.5384864009e-62, No Iterations 6
DILUPBiCGStab:  Solving for ILambda_97_0, Initial residual = 5.75736688079e-17, Final residual = 6.98312536261e-64, No Iterations 6
DILUPBiCGStab:  Solving for ILambda_98_0, Initial residual = 6.0349776862e-17, Final residual = 6.60585853385e-62, No Iterations 5
DILUPBiCGStab:  Solving for ILambda_99_0, Initial residual = 5.99167486515e-17, Final residual = 1.12607102915e-61, No Iterations 5
DILUPBiCGStab:  Solving for ILambda_100_0, Initial residual = 6.29164904869e-17, Final residual = 4.61394550755e-63, No Iterations 5
DILUPBiCGStab:  Solving for ILambda_101_0, Initial residual = 6.61233429314e-17, Final residual = 3.16309801539e-61, No Iterations 7
DILUPBiCGStab:  Solving for ILambda_102_0, Initial residual = 6.30394237388e-17, Final residual = 5.68811824339e-67, No Iterations 6
DILUPBiCGStab:  Solving for ILambda_103_0, Initial residual = 5.555217738e-17, Final residual = 2.2348524311e-63, No Iterations 6
DILUPBiCGStab:  Solving for ILambda_104_0, Initial residual = 9.64917519144e-17, Final residual = 3.18901707209e-61, No Iterations 21
DILUPBiCGStab:  Solving for ILambda_105_0, Initial residual = 1.83183982641e-16, Final residual = 3.24360466851e-61, No Iterations 25
DILUPBiCGStab:  Solving for ILambda_106_0, Initial residual = 1.94034421938e-15, Final residual = 8.36030428248e-61, No Iterations 28
DILUPBiCGStab:  Solving for ILambda_107_0, Initial residual = 7.5670784032e-16, Final residual = 5.19835311794e-61, No Iterations 30
DILUPBiCGStab:  Solving for ILambda_108_0, Initial residual = 8.84444170179e-16, Final residual = 4.26363278714e-61, No Iterations 30
DILUPBiCGStab:  Solving for ILambda_109_0, Initial residual = 6.0809109899e-16, Final residual = 1.42037497775e-61, No Iterations 28
DILUPBiCGStab:  Solving for ILambda_110_0, Initial residual = 1.07002712252e-16, Final residual = 2.36530631166e-61, No Iterations 25
DILUPBiCGStab:  Solving for ILambda_111_0, Initial residual = 7.77427659406e-17, Final residual = 7.9971472928e-62, No Iterations 19
DILUPBiCGStab:  Solving for ILambda_112_0, Initial residual = 4.46066751372e-17, Final residual = 9.36635518212e-63, No Iterations 2
DILUPBiCGStab:  Solving for ILambda_113_0, Initial residual = 4.78627943596e-17, Final residual = 1.87231224119e-62, No Iterations 2
DILUPBiCGStab:  Solving for ILambda_114_0, Initial residual = 4.42056921085e-17, Final residual = 4.04115897693e-63, No Iterations 2
DILUPBiCGStab:  Solving for ILambda_115_0, Initial residual = 4.42670949999e-17, Final residual = 1.5995153082e-63, No Iterations 2
DILUPBiCGStab:  Solving for ILambda_116_0, Initial residual = 4.85766899434e-17, Final residual = 4.87685180846e-63, No Iterations 2
DILUPBiCGStab:  Solving for ILambda_117_0, Initial residual = 4.17058333314e-17, Final residual = 2.79470245158e-63, No Iterations 2
DILUPBiCGStab:  Solving for ILambda_118_0, Initial residual = 4.28106179905e-17, Final residual = 9.2289593407e-63, No Iterations 2
DILUPBiCGStab:  Solving for ILambda_119_0, Initial residual = 3.87996935942e-17, Final residual = 6.61300968599e-63, No Iterations 2
DILUPBiCGStab:  Solving for ILambda_120_0, Initial residual = 7.48888672587e-17, Final residual = 2.36023829351e-61, No Iterations 21
DILUPBiCGStab:  Solving for ILambda_121_0, Initial residual = 1.13006806053e-16, Final residual = 2.65495677538e-61, No Iterations 27
DILUPBiCGStab:  Solving for ILambda_122_0, Initial residual = 5.75939493952e-16, Final residual = 2.15250874814e-61, No Iterations 28
DILUPBiCGStab:  Solving for ILambda_123_0, Initial residual = 8.21615816559e-16, Final residual = 2.6540405965e-61, No Iterations 30
DILUPBiCGStab:  Solving for ILambda_124_0, Initial residual = 7.93736726255e-16, Final residual = 1.41513737782e-61, No Iterations 29
DILUPBiCGStab:  Solving for ILambda_125_0, Initial residual = 1.98348970911e-15, Final residual = 1.13402461373e-61, No Iterations 28
DILUPBiCGStab:  Solving for ILambda_126_0, Initial residual = 1.74131121887e-16, Final residual = 1.15958025976e-61, No Iterations 26
DILUPBiCGStab:  Solving for ILambda_127_0, Initial residual = 9.69795997723e-17, Final residual = 1.50954869209e-61, No Iterations 21
min/max(T) = 1000, 1000
PIMPLE: iteration 2
Radiation solver iter: 0
DILUPBiCGStab:  Solving for ILambda_0_0, Initial residual = 4.22826678464e-17, Final residual = 3.38522510703e-63, No Iterations 2
DILUPBiCGStab:  Solving for ILambda_1_0, Initial residual = 4.06014762246e-17, Final residual = 9.93766529275e-62, No Iterations 2
DILUPBiCGStab:  Solving for ILambda_2_0, Initial residual = 3.38541875538e-17, Final residual = 2.51604240745e-63, No Iterations 2
DILUPBiCGStab:  Solving for ILambda_3_0, Initial residual = 4.47935314494e-17, Final residual = 1.51471105591e-63, No Iterations 2
DILUPBiCGStab:  Solving for ILambda_4_0, Initial residual = 4.39729469475e-17, Final residual = 9.00107381613e-64, No Iterations 2
DILUPBiCGStab:  Solving for ILambda_5_0, Initial residual = 4.30421734406e-17, Final residual = 2.60761910052e-63, No Iterations 2
DILUPBiCGStab:  Solving for ILambda_6_0, Initial residual = 4.4543107928e-17, Final residual = 3.09098240889e-63, No Iterations 2
DILUPBiCGStab:  Solving for ILambda_7_0, Initial residual = 4.15755440545e-17, Final residual = 1.56840117826e-63, No Iterations 2
DILUPBiCGStab:  Solving for ILambda_8_0, Initial residual = 4.54534173452e-17, Final residual = 1.72510722134e-61, No Iterations 21
DILUPBiCGStab:  Solving for ILambda_9_0, Initial residual = 5.1157372049e-17, Final residual = 7.20093798124e-62, No Iterations 26
DILUPBiCGStab:  Solving for ILambda_10_0, Initial residual = 5.64670677152e-17, Final residual = 4.83400808809e-62, No Iterations 28
DILUPBiCGStab:  Solving for ILambda_11_0, Initial residual = 6.14339274728e-17, Final residual = 1.28397810578e-61, No Iterations 29
DILUPBiCGStab:  Solving for ILambda_12_0, Initial residual = 5.23889113752e-17, Final residual = 2.45003858289e-61, No Iterations 31
DILUPBiCGStab:  Solving for ILambda_13_0, Initial residual = 6.12986376924e-17, Final residual = 4.37939739664e-61, No Iterations 27
DILUPBiCGStab:  Solving for ILambda_14_0, Initial residual = 5.09775557449e-17, Final residual = 3.36632857883e-61, No Iterations 26
DILUPBiCGStab:  Solving for ILambda_15_0, Initial residual = 4.69704819754e-17, Final residual = 2.32030099424e-61, No Iterations 19
DILUPBiCGStab:  Solving for ILambda_16_0, Initial residual = 4.02316062603e-17, Final residual = 9.89235504885e-63, No Iterations 6
DILUPBiCGStab:  Solving for ILambda_17_0, Initial residual = 4.51074956239e-17, Final residual = 6.92280128427e-62, No Iterations 5
DILUPBiCGStab:  Solving for ILambda_18_0, Initial residual = 4.16688195133e-17, Final residual = 5.37491505443e-66, No Iterations 6
DILUPBiCGStab:  Solving for ILambda_19_0, Initial residual = 4.00103864235e-17, Final residual = 2.93092555311e-66, No Iterations 6
DILUPBiCGStab:  Solving for ILambda_20_0, Initial residual = 4.30646956239e-17, Final residual = 5.95656221298e-64, No Iterations 6
DILUPBiCGStab:  Solving for ILambda_21_0, Initial residual = 4.25138276114e-17, Final residual = 1.26636996031e-64, No Iterations 6
DILUPBiCGStab:  Solving for ILambda_22_0, Initial residual = 4.047154811e-17, Final residual = 1.67541414989e-61, No Iterations 6
DILUPBiCGStab:  Solving for ILambda_23_0, Initial residual = 4.03134865194e-17, Final residual = 1.33758772215e-65, No Iterations 6
DILUPBiCGStab:  Solving for ILambda_24_0, Initial residual = 4.2877972092e-17, Final residual = 1.6010073225e-62, No Iterations 21
DILUPBiCGStab:  Solving for ILambda_25_0, Initial residual = 5.67180940589e-17, Final residual = 1.36787343984e-62, No Iterations 25
DILUPBiCGStab:  Solving for ILambda_26_0, Initial residual = 5.74433157966e-17, Final residual = 7.20046709428e-61, No Iterations 28
DILUPBiCGStab:  Solving for ILambda_27_0, Initial residual = 5.85652636289e-17, Final residual = 8.7384924885e-61, No Iterations 30
DILUPBiCGStab:  Solving for ILambda_28_0, Initial residual = 6.71523472552e-17, Final residual = 4.398800587e-61, No Iterations 30
DILUPBiCGStab:  Solving for ILambda_29_0, Initial residual = 5.43186251055e-17, Final residual = 1.13173802713e-61, No Iterations 29
DILUPBiCGStab:  Solving for ILambda_30_0, Initial residual = 5.38525611728e-17, Final residual = 1.23896803374e-61, No Iterations 25
DILUPBiCGStab:  Solving for ILambda_31_0, Initial residual = 4.39568964728e-17, Final residual = 2.16918347984e-61, No Iterations 21
DILUPBiCGStab:  Solving for ILambda_32_0, Initial residual = 1.98700245269e-16, Final residual = 2.26699356656e-62, No Iterations 2
DILUPBiCGStab:  Solving for ILambda_33_0, Initial residual = 1.8755473616e-16, Final residual = 1.13888649553e-61, No Iterations 2
DILUPBiCGStab:  Solving for ILambda_34_0, Initial residual = 1.7821871359e-16, Final residual = 1.1412205632e-62, No Iterations 2
DILUPBiCGStab:  Solving for ILambda_35_0, Initial residual = 1.50878450791e-16, Final residual = 4.63544258648e-63, No Iterations 2
DILUPBiCGStab:  Solving for ILambda_36_0, Initial residual = 1.60225722502e-16, Final residual = 1.18700926736e-62, No Iterations 2
DILUPBiCGStab:  Solving for ILambda_37_0, Initial residual = 1.68270282026e-16, Final residual = 2.85242982445e-63, No Iterations 2
DILUPBiCGStab:  Solving for ILambda_38_0, Initial residual = 2.57959776908e-16, Final residual = 1.43693471405e-61, No Iterations 2
DILUPBiCGStab:  Solving for ILambda_39_0, Initial residual = 2.2525504925e-16, Final residual = 8.55072080725e-63, No Iterations 2
DILUPBiCGStab:  Solving for ILambda_40_0, Initial residual = 2.06354260946e-16, Final residual = 4.59271839865e-63, No Iterations 21
DILUPBiCGStab:  Solving for ILambda_41_0, Initial residual = 2.41277358596e-16, Final residual = 1.36460418031e-61, No Iterations 28
DILUPBiCGStab:  Solving for ILambda_42_0, Initial residual = 2.4221804813e-16, Final residual = 3.64572685069e-61, No Iterations 30
DILUPBiCGStab:  Solving for ILambda_43_0, Initial residual = 2.78077145517e-16, Final residual = 3.57295375993e-61, No Iterations 31
DILUPBiCGStab:  Solving for ILambda_44_0, Initial residual = 2.4185252008e-16, Final residual = 2.50024951833e-61, No Iterations 30
DILUPBiCGStab:  Solving for ILambda_45_0, Initial residual = 2.58553840986e-16, Final residual = 6.21677200572e-61, No Iterations 29
DILUPBiCGStab:  Solving for ILambda_46_0, Initial residual = 2.91600074094e-16, Final residual = 2.05660429521e-61, No Iterations 25
DILUPBiCGStab:  Solving for ILambda_47_0, Initial residual = 2.40228527527e-16, Final residual = 1.95895010887e-61, No Iterations 20
DILUPBiCGStab:  Solving for ILambda_48_0, Initial residual = 2.25291909043e-16, Final residual = 1.31407796184e-65, No Iterations 6
DILUPBiCGStab:  Solving for ILambda_49_0, Initial residual = 2.46976312796e-16, Final residual = 7.61190381151e-64, No Iterations 6
DILUPBiCGStab:  Solving for ILambda_50_0, Initial residual = 1.76326499653e-16, Final residual = 3.07442246928e-61, No Iterations 7
DILUPBiCGStab:  Solving for ILambda_51_0, Initial residual = 1.80839285533e-16, Final residual = 1.24423487796e-61, No Iterations 6
DILUPBiCGStab:  Solving for ILambda_52_0, Initial residual = 1.74859161221e-16, Final residual = 3.76943869512e-62, No Iterations 6
DILUPBiCGStab:  Solving for ILambda_53_0, Initial residual = 1.8704142371e-16, Final residual = 2.73760306142e-64, No Iterations 6
DILUPBiCGStab:  Solving for ILambda_54_0, Initial residual = 1.99083263132e-16, Final residual = 2.08031580973e-62, No Iterations 7
DILUPBiCGStab:  Solving for ILambda_55_0, Initial residual = 1.94806767645e-16, Final residual = 1.29397517745e-64, No Iterations 6
DILUPBiCGStab:  Solving for ILambda_56_0, Initial residual = 2.58151538122e-16, Final residual = 1.77154758571e-63, No Iterations 21
DILUPBiCGStab:  Solving for ILambda_57_0, Initial residual = 2.66850736066e-16, Final residual = 2.61436019611e-61, No Iterations 26
DILUPBiCGStab:  Solving for ILambda_58_0, Initial residual = 2.63700721529e-16, Final residual = 5.28533208977e-61, No Iterations 30
DILUPBiCGStab:  Solving for ILambda_59_0, Initial residual = 2.51636691873e-16, Final residual = 6.54430818325e-61, No Iterations 30
DILUPBiCGStab:  Solving for ILambda_60_0, Initial residual = 2.56955140412e-16, Final residual = 2.93060065148e-61, No Iterations 30
DILUPBiCGStab:  Solving for ILambda_61_0, Initial residual = 2.45422587543e-16, Final residual = 2.45338265374e-61, No Iterations 27
DILUPBiCGStab:  Solving for ILambda_62_0, Initial residual = 2.57022279409e-16, Final residual = 8.13157372275e-61, No Iterations 25
DILUPBiCGStab:  Solving for ILambda_63_0, Initial residual = 2.152785745e-16, Final residual = 2.05856389128e-61, No Iterations 21
DILUPBiCGStab:  Solving for ILambda_64_0, Initial residual = 1.87837892664e-16, Final residual = 2.90835613012e-62, No Iterations 6
DILUPBiCGStab:  Solving for ILambda_65_0, Initial residual = 2.0949380709e-16, Final residual = 3.51955187333e-63, No Iterations 6
DILUPBiCGStab:  Solving for ILambda_66_0, Initial residual = 1.84498400733e-16, Final residual = 1.64861562993e-61, No Iterations 5
DILUPBiCGStab:  Solving for ILambda_67_0, Initial residual = 1.68743611693e-16, Final residual = 7.68995770424e-66, No Iterations 7
DILUPBiCGStab:  Solving for ILambda_68_0, Initial residual = 1.5339237365e-16, Final residual = 1.60110006042e-61, No Iterations 6
DILUPBiCGStab:  Solving for ILambda_69_0, Initial residual = 1.79198307734e-16, Final residual = 3.95929334873e-61, No Iterations 6
DILUPBiCGStab:  Solving for ILambda_70_0, Initial residual = 2.48427776024e-16, Final residual = 6.86186124365e-65, No Iterations 6
DILUPBiCGStab:  Solving for ILambda_71_0, Initial residual = 2.20453901881e-16, Final residual = 2.86265365894e-62, No Iterations 6
DILUPBiCGStab:  Solving for ILambda_72_0, Initial residual = 2.23824352851e-16, Final residual = 8.29174946873e-65, No Iterations 21
DILUPBiCGStab:  Solving for ILambda_73_0, Initial residual = 2.50896596093e-16, Final residual = 8.01675033269e-62, No Iterations 25
DILUPBiCGStab:  Solving for ILambda_74_0, Initial residual = 2.36106853793e-16, Final residual = 4.12596997352e-61, No Iterations 29
DILUPBiCGStab:  Solving for ILambda_75_0, Initial residual = 2.50604171529e-16, Final residual = 6.6011744069e-61, No Iterations 29
DILUPBiCGStab:  Solving for ILambda_76_0, Initial residual = 2.5394932521e-16, Final residual = 8.05557708804e-61, No Iterations 28
DILUPBiCGStab:  Solving for ILambda_77_0, Initial residual = 2.27318517822e-16, Final residual = 6.86861343542e-61, No Iterations 31
DILUPBiCGStab:  Solving for ILambda_78_0, Initial residual = 2.76076120835e-16, Final residual = 1.6959799379e-61, No Iterations 26
DILUPBiCGStab:  Solving for ILambda_79_0, Initial residual = 2.48714289213e-16, Final residual = 3.49946399138e-61, No Iterations 19
DILUPBiCGStab:  Solving for ILambda_80_0, Initial residual = 2.24765849689e-16, Final residual = 2.77018133267e-62, No Iterations 2
DILUPBiCGStab:  Solving for ILambda_81_0, Initial residual = 2.40730612082e-16, Final residual = 2.40846063837e-62, No Iterations 2
DILUPBiCGStab:  Solving for ILambda_82_0, Initial residual = 1.87400976648e-16, Final residual = 2.30012060524e-62, No Iterations 2
DILUPBiCGStab:  Solving for ILambda_83_0, Initial residual = 1.43355749453e-16, Final residual = 4.0192021625e-63, No Iterations 2
DILUPBiCGStab:  Solving for ILambda_84_0, Initial residual = 1.5112236808e-16, Final residual = 3.33696908944e-63, No Iterations 2
DILUPBiCGStab:  Solving for ILambda_85_0, Initial residual = 1.61198550165e-16, Final residual = 4.51602837894e-62, No Iterations 2
DILUPBiCGStab:  Solving for ILambda_86_0, Initial residual = 1.91708680802e-16, Final residual = 2.68177330322e-63, No Iterations 2
DILUPBiCGStab:  Solving for ILambda_87_0, Initial residual = 1.85641309253e-16, Final residual = 7.17188241149e-63, No Iterations 2
DILUPBiCGStab:  Solving for ILambda_88_0, Initial residual = 2.43023498341e-16, Final residual = 1.81089998444e-64, No Iterations 22
DILUPBiCGStab:  Solving for ILambda_89_0, Initial residual = 2.53209781795e-16, Final residual = 1.90203781989e-61, No Iterations 25
DILUPBiCGStab:  Solving for ILambda_90_0, Initial residual = 2.49691928831e-16, Final residual = 9.54438216845e-62, No Iterations 29
DILUPBiCGStab:  Solving for ILambda_91_0, Initial residual = 2.43515645623e-16, Final residual = 5.83080616536e-61, No Iterations 31
DILUPBiCGStab:  Solving for ILambda_92_0, Initial residual = 2.46653247864e-16, Final residual = 6.39881136492e-61, No Iterations 29
DILUPBiCGStab:  Solving for ILambda_93_0, Initial residual = 2.50046122761e-16, Final residual = 4.0950923185e-61, No Iterations 28
DILUPBiCGStab:  Solving for ILambda_94_0, Initial residual = 2.46937572835e-16, Final residual = 5.51935717615e-61, No Iterations 26
DILUPBiCGStab:  Solving for ILambda_95_0, Initial residual = 2.265869306e-16, Final residual = 1.62847104047e-61, No Iterations 21
DILUPBiCGStab:  Solving for ILambda_96_0, Initial residual = 3.98341525302e-17, Final residual = 7.93314780922e-65, No Iterations 6
DILUPBiCGStab:  Solving for ILambda_97_0, Initial residual = 4.0817095391e-17, Final residual = 1.17363823846e-63, No Iterations 6
DILUPBiCGStab:  Solving for ILambda_98_0, Initial residual = 4.06914454555e-17, Final residual = 9.62357004812e-63, No Iterations 6
DILUPBiCGStab:  Solving for ILambda_99_0, Initial residual = 4.53109919549e-17, Final residual = 3.4945328683e-64, No Iterations 6
DILUPBiCGStab:  Solving for ILambda_100_0, Initial residual = 4.45141777705e-17, Final residual = 2.06987536931e-63, No Iterations 5
DILUPBiCGStab:  Solving for ILambda_101_0, Initial residual = 4.44898603985e-17, Final residual = 9.09425230525e-64, No Iterations 6
DILUPBiCGStab:  Solving for ILambda_102_0, Initial residual = 4.58011315996e-17, Final residual = 1.38980506313e-62, No Iterations 5
DILUPBiCGStab:  Solving for ILambda_103_0, Initial residual = 4.43366585645e-17, Final residual = 1.95519953441e-63, No Iterations 6
DILUPBiCGStab:  Solving for ILambda_104_0, Initial residual = 4.59455062037e-17, Final residual = 7.73985484531e-63, No Iterations 21
DILUPBiCGStab:  Solving for ILambda_105_0, Initial residual = 5.19411419032e-17, Final residual = 1.53496123919e-61, No Iterations 24
DILUPBiCGStab:  Solving for ILambda_106_0, Initial residual = 5.34567008057e-17, Final residual = 1.24807525424e-61, No Iterations 26
DILUPBiCGStab:  Solving for ILambda_107_0, Initial residual = 6.04454370538e-17, Final residual = 1.41541774267e-61, No Iterations 30
DILUPBiCGStab:  Solving for ILambda_108_0, Initial residual = 5.6141506515e-17, Final residual = 1.87590192625e-61, No Iterations 32
DILUPBiCGStab:  Solving for ILambda_109_0, Initial residual = 5.72623443045e-17, Final residual = 3.72838009162e-62, No Iterations 29
DILUPBiCGStab:  Solving for ILambda_110_0, Initial residual = 4.96148428256e-17, Final residual = 1.09886992242e-61, No Iterations 26
DILUPBiCGStab:  Solving for ILambda_111_0, Initial residual = 4.8533767405e-17, Final residual = 3.96844126438e-62, No Iterations 20
DILUPBiCGStab:  Solving for ILambda_112_0, Initial residual = 4.41424302938e-17, Final residual = 1.10535018357e-62, No Iterations 2
DILUPBiCGStab:  Solving for ILambda_113_0, Initial residual = 4.61265679864e-17, Final residual = 3.40621368521e-62, No Iterations 2
DILUPBiCGStab:  Solving for ILambda_114_0, Initial residual = 4.48980215267e-17, Final residual = 7.84297602908e-63, No Iterations 2
DILUPBiCGStab:  Solving for ILambda_115_0, Initial residual = 4.69183179326e-17, Final residual = 1.71754505318e-63, No Iterations 2
DILUPBiCGStab:  Solving for ILambda_116_0, Initial residual = 4.31049147568e-17, Final residual = 1.09075470636e-63, No Iterations 2
DILUPBiCGStab:  Solving for ILambda_117_0, Initial residual = 4.00326218016e-17, Final residual = 3.08863444709e-63, No Iterations 2
DILUPBiCGStab:  Solving for ILambda_118_0, Initial residual = 4.07217777722e-17, Final residual = 8.26622705056e-62, No Iterations 2
DILUPBiCGStab:  Solving for ILambda_119_0, Initial residual = 3.84892958967e-17, Final residual = 1.03744253113e-63, No Iterations 2
DILUPBiCGStab:  Solving for ILambda_120_0, Initial residual = 4.42190498e-17, Final residual = 1.9833927676e-61, No Iterations 21
DILUPBiCGStab:  Solving for ILambda_121_0, Initial residual = 5.30138920031e-17, Final residual = 8.04984747568e-61, No Iterations 27
DILUPBiCGStab:  Solving for ILambda_122_0, Initial residual = 5.55221796693e-17, Final residual = 2.83236539041e-61, No Iterations 28
DILUPBiCGStab:  Solving for ILambda_123_0, Initial residual = 5.5367087045e-17, Final residual = 3.06760624836e-61, No Iterations 32
DILUPBiCGStab:  Solving for ILambda_124_0, Initial residual = 5.75538659638e-17, Final residual = 3.30414110681e-61, No Iterations 30
DILUPBiCGStab:  Solving for ILambda_125_0, Initial residual = 5.90149902816e-17, Final residual = 4.39245137263e-61, No Iterations 28
DILUPBiCGStab:  Solving for ILambda_126_0, Initial residual = 4.82771589803e-17, Final residual = 4.5491410631e-61, No Iterations 24
DILUPBiCGStab:  Solving for ILambda_127_0, Initial residual = 4.66700268619e-17, Final residual = 1.020408463e-61, No Iterations 20
min/max(T) = 1000, 1000
PIMPLE: iteration 3
Radiation solver iter: 0
DILUPBiCGStab:  Solving for ILambda_0_0, Initial residual = 4.05614403284e-17, Final residual = 4.584890369e-63, No Iterations 2
DILUPBiCGStab:  Solving for ILambda_1_0, Initial residual = 4.05744342021e-17, Final residual = 2.32822874056e-63, No Iterations 2
DILUPBiCGStab:  Solving for ILambda_2_0, Initial residual = 3.40097236643e-17, Final residual = 3.17212043769e-63, No Iterations 2
DILUPBiCGStab:  Solving for ILambda_3_0, Initial residual = 4.64409331573e-17, Final residual = 4.04244771637e-63, No Iterations 2
DILUPBiCGStab:  Solving for ILambda_4_0, Initial residual = 4.02305254292e-17, Final residual = 1.1462564613e-63, No Iterations 2
DILUPBiCGStab:  Solving for ILambda_5_0, Initial residual = 3.4997773253e-17, Final residual = 4.0496636368e-63, No Iterations 2
DILUPBiCGStab:  Solving for ILambda_6_0, Initial residual = 4.52453241624e-17, Final residual = 1.12709187299e-62, No Iterations 2
DILUPBiCGStab:  Solving for ILambda_7_0, Initial residual = 3.9773541009e-17, Final residual = 2.2702881629e-63, No Iterations 2
DILUPBiCGStab:  Solving for ILambda_8_0, Initial residual = 4.08933059341e-17, Final residual = 2.40320720063e-62, No Iterations 21
DILUPBiCGStab:  Solving for ILambda_9_0, Initial residual = 4.40188012735e-17, Final residual = 8.36201679e-61, No Iterations 26
DILUPBiCGStab:  Solving for ILambda_10_0, Initial residual = 4.84468680531e-17, Final residual = 5.15793871938e-61, No Iterations 29
DILUPBiCGStab:  Solving for ILambda_11_0, Initial residual = 5.33442306361e-17, Final residual = 3.49502986509e-61, No Iterations 29
DILUPBiCGStab:  Solving for ILambda_12_0, Initial residual = 5.31705009779e-17, Final residual = 1.46494514632e-61, No Iterations 32
DILUPBiCGStab:  Solving for ILambda_13_0, Initial residual = 4.2772714545e-17, Final residual = 2.40305959794e-61, No Iterations 26
DILUPBiCGStab:  Solving for ILambda_14_0, Initial residual = 4.30777957218e-17, Final residual = 2.34521706738e-61, No Iterations 25
DILUPBiCGStab:  Solving for ILambda_15_0, Initial residual = 4.62606893008e-17, Final residual = 3.02929158038e-61, No Iterations 21
DILUPBiCGStab:  Solving for ILambda_16_0, Initial residual = 3.85003140006e-17, Final residual = 4.98175228338e-61, No Iterations 6
DILUPBiCGStab:  Solving for ILambda_17_0, Initial residual = 4.26989869921e-17, Final residual = 2.04877355897e-64, No Iterations 5
DILUPBiCGStab:  Solving for ILambda_18_0, Initial residual = 3.91829504616e-17, Final residual = 2.70041637634e-61, No Iterations 6
DILUPBiCGStab:  Solving for ILambda_19_0, Initial residual = 4.33945376588e-17, Final residual = 7.72095085736e-61, No Iterations 6
DILUPBiCGStab:  Solving for ILambda_20_0, Initial residual = 4.26084627398e-17, Final residual = 3.35077299462e-65, No Iterations 6
DILUPBiCGStab:  Solving for ILambda_21_0, Initial residual = 3.34001455436e-17, Final residual = 1.41091570404e-65, No Iterations 6
DILUPBiCGStab:  Solving for ILambda_22_0, Initial residual = 4.07166444884e-17, Final residual = 2.39449516915e-61, No Iterations 6
DILUPBiCGStab:  Solving for ILambda_23_0, Initial residual = 4.01270073031e-17, Final residual = 5.1181108118e-65, No Iterations 6
DILUPBiCGStab:  Solving for ILambda_24_0, Initial residual = 4.10026743573e-17, Final residual = 3.85935861309e-62, No Iterations 20
DILUPBiCGStab:  Solving for ILambda_25_0, Initial residual = 5.19966599747e-17, Final residual = 1.07670279829e-61, No Iterations 24
DILUPBiCGStab:  Solving for ILambda_26_0, Initial residual = 4.81898772213e-17, Final residual = 1.66923379547e-61, No Iterations 28
DILUPBiCGStab:  Solving for ILambda_27_0, Initial residual = 4.7476361389e-17, Final residual = 2.65106124238e-61, No Iterations 29
DILUPBiCGStab:  Solving for ILambda_28_0, Initial residual = 4.95411232396e-17, Final residual = 1.46554769632e-61, No Iterations 28
DILUPBiCGStab:  Solving for ILambda_29_0, Initial residual = 4.67664359341e-17, Final residual = 1.78893015258e-61, No Iterations 30
DILUPBiCGStab:  Solving for ILambda_30_0, Initial residual = 4.1868603309e-17, Final residual = 1.3894774808e-61, No Iterations 26
DILUPBiCGStab:  Solving for ILambda_31_0, Initial residual = 3.88785199079e-17, Final residual = 7.68783076419e-61, No Iterations 20
DILUPBiCGStab:  Solving for ILambda_32_0, Initial residual = 2.00650500101e-16, Final residual = 1.73470404309e-62, No Iterations 2
DILUPBiCGStab:  Solving for ILambda_33_0, Initial residual = 1.93413802078e-16, Final residual = 3.20845112688e-63, No Iterations 2
DILUPBiCGStab:  Solving for ILambda_34_0, Initial residual = 1.89592594079e-16, Final residual = 5.53630207047e-62, No Iterations 2
DILUPBiCGStab:  Solving for ILambda_35_0, Initial residual = 1.56945232795e-16, Final residual = 1.09891332105e-62, No Iterations 2
DILUPBiCGStab:  Solving for ILambda_36_0, Initial residual = 1.42199106146e-16, Final residual = 1.93750969766e-62, No Iterations 2
DILUPBiCGStab:  Solving for ILambda_37_0, Initial residual = 1.57846608759e-16, Final residual = 3.00598978268e-63, No Iterations 2
DILUPBiCGStab:  Solving for ILambda_38_0, Initial residual = 2.53936870423e-16, Final residual = 3.83086924212e-62, No Iterations 2
DILUPBiCGStab:  Solving for ILambda_39_0, Initial residual = 2.14792439507e-16, Final residual = 4.45830204866e-63, No Iterations 2
DILUPBiCGStab:  Solving for ILambda_40_0, Initial residual = 2.04502518425e-16, Final residual = 6.04903371026e-61, No Iterations 22
DILUPBiCGStab:  Solving for ILambda_41_0, Initial residual = 2.22757915124e-16, Final residual = 1.12319984553e-61, No Iterations 26
DILUPBiCGStab:  Solving for ILambda_42_0, Initial residual = 2.24591886338e-16, Final residual = 1.00063323588e-61, No Iterations 31
DILUPBiCGStab:  Solving for ILambda_43_0, Initial residual = 2.47720737212e-16, Final residual = 4.71700976971e-62, No Iterations 31
DILUPBiCGStab:  Solving for ILambda_44_0, Initial residual = 1.75359503699e-16, Final residual = 2.40266844809e-61, No Iterations 29
DILUPBiCGStab:  Solving for ILambda_45_0, Initial residual = 2.08996561048e-16, Final residual = 1.89154609215e-61, No Iterations 30
DILUPBiCGStab:  Solving for ILambda_46_0, Initial residual = 2.75363000687e-16, Final residual = 7.12945708194e-61, No Iterations 25
DILUPBiCGStab:  Solving for ILambda_47_0, Initial residual = 2.30466190116e-16, Final residual = 1.15468478321e-61, No Iterations 19
DILUPBiCGStab:  Solving for ILambda_48_0, Initial residual = 2.23442243205e-16, Final residual = 1.42755966917e-63, No Iterations 6
DILUPBiCGStab:  Solving for ILambda_49_0, Initial residual = 2.4574954028e-16, Final residual = 4.35961767554e-62, No Iterations 6
DILUPBiCGStab:  Solving for ILambda_50_0, Initial residual = 1.79137000443e-16, Final residual = 2.28382429302e-61, No Iterations 7
DILUPBiCGStab:  Solving for ILambda_51_0, Initial residual = 1.48356853233e-16, Final residual = 3.51857402377e-61, No Iterations 6
DILUPBiCGStab:  Solving for ILambda_52_0, Initial residual = 1.39277213361e-16, Final residual = 1.5743561356e-62, No Iterations 6
DILUPBiCGStab:  Solving for ILambda_53_0, Initial residual = 1.81983877708e-16, Final residual = 1.5641160116e-64, No Iterations 6
DILUPBiCGStab:  Solving for ILambda_54_0, Initial residual = 1.9633985885e-16, Final residual = 4.16170987813e-63, No Iterations 6
DILUPBiCGStab:  Solving for ILambda_55_0, Initial residual = 1.9962563321e-16, Final residual = 8.31598674274e-61, No Iterations 6
DILUPBiCGStab:  Solving for ILambda_56_0, Initial residual = 2.30020330024e-16, Final residual = 9.37139976276e-61, No Iterations 20
DILUPBiCGStab:  Solving for ILambda_57_0, Initial residual = 2.58013260786e-16, Final residual = 1.23870214304e-63, No Iterations 27
DILUPBiCGStab:  Solving for ILambda_58_0, Initial residual = 2.4107320633e-16, Final residual = 2.81274759124e-61, No Iterations 30
DILUPBiCGStab:  Solving for ILambda_59_0, Initial residual = 1.91102639947e-16, Final residual = 1.66670875019e-61, No Iterations 28
DILUPBiCGStab:  Solving for ILambda_60_0, Initial residual = 1.99978833943e-16, Final residual = 3.75606483118e-61, No Iterations 33
DILUPBiCGStab:  Solving for ILambda_61_0, Initial residual = 2.19216581303e-16, Final residual = 6.31121732653e-61, No Iterations 27
DILUPBiCGStab:  Solving for ILambda_62_0, Initial residual = 2.00771505384e-16, Final residual = 6.35885814796e-61, No Iterations 26
DILUPBiCGStab:  Solving for ILambda_63_0, Initial residual = 2.04071758101e-16, Final residual = 1.06766984494e-62, No Iterations 20
DILUPBiCGStab:  Solving for ILambda_64_0, Initial residual = 1.94576595765e-16, Final residual = 2.58806377111e-61, No Iterations 5
DILUPBiCGStab:  Solving for ILambda_65_0, Initial residual = 2.20393460318e-16, Final residual = 5.04604200642e-62, No Iterations 6
DILUPBiCGStab:  Solving for ILambda_66_0, Initial residual = 1.79325739579e-16, Final residual = 3.17954846089e-61, No Iterations 5
[...]
DILUPBiCGStab:  Solving for ILambda_107_0, Initial residual = 5.23820997492e-17, Final residual = 3.45100845026e-61, No Iterations 27
DILUPBiCGStab:  Solving for ILambda_108_0, Initial residual = 4.47038145008e-17, Final residual = 9.25837613855e-61, No Iterations 29
DILUPBiCGStab:  Solving for ILambda_109_0, Initial residual = 5.00907218731e-17, Final residual = 1.62576564716e-61, No Iterations 26
DILUPBiCGStab:  Solving for ILambda_110_0, Initial residual = 5.17555363809e-17, Final residual = 3.73724008771e-61, No Iterations 25
DILUPBiCGStab:  Solving for ILambda_111_0, Initial residual = 4.72131166082e-17, Final residual = 5.91608053052e-61, No Iterations 19
DILUPBiCGStab:  Solving for ILambda_112_0, Initial residual = 4.30415493735e-17, Final residual = 6.6213185042e-63, No Iterations 2
DILUPBiCGStab:  Solving for ILambda_113_0, Initial residual = 4.3577208738e-17, Final residual = 7.22273964389e-63, No Iterations 2
DILUPBiCGStab:  Solving for ILambda_114_0, Initial residual = 4.5546846829e-17, Final residual = 6.10454162789e-62, No Iterations 2
DILUPBiCGStab:  Solving for ILambda_115_0, Initial residual = 4.33325903685e-17, Final residual = 5.12785907398e-64, No Iterations 2
DILUPBiCGStab:  Solving for ILambda_116_0, Initial residual = 4.44830089384e-17, Final residual = 2.10817383542e-63, No Iterations 2
DILUPBiCGStab:  Solving for ILambda_117_0, Initial residual = 3.98787056099e-17, Final residual = 4.76551650618e-63, No Iterations 2
DILUPBiCGStab:  Solving for ILambda_118_0, Initial residual = 4.04996284739e-17, Final residual = 2.01861723811e-63, No Iterations 2
DILUPBiCGStab:  Solving for ILambda_119_0, Initial residual = 3.95575925476e-17, Final residual = 7.44748460394e-64, No Iterations 2
DILUPBiCGStab:  Solving for ILambda_120_0, Initial residual = 4.53644200655e-17, Final residual = 9.83057702647e-61, No Iterations 21
DILUPBiCGStab:  Solving for ILambda_121_0, Initial residual = 5.75258626125e-17, Final residual = 1.1130241129e-61, No Iterations 25
DILUPBiCGStab:  Solving for ILambda_122_0, Initial residual = 5.11290925147e-17, Final residual = 3.93184821908e-61, No Iterations 28
DILUPBiCGStab:  Solving for ILambda_123_0, Initial residual = 4.37292261724e-17, Final residual = 8.0677521768e-62, No Iterations 27
DILUPBiCGStab:  Solving for ILambda_124_0, Initial residual = 4.16594558512e-17, Final residual = 7.57449306419e-61, No Iterations 29
DILUPBiCGStab:  Solving for ILambda_125_0, Initial residual = 3.63230872917e-17, Final residual = 2.34529967636e-61, No Iterations 29
DILUPBiCGStab:  Solving for ILambda_126_0, Initial residual = 4.82562885831e-17, Final residual = 4.0040182703e-61, No Iterations 25
DILUPBiCGStab:  Solving for ILambda_127_0, Initial residual = 3.85146834775e-17, Final residual = 2.63178912034e-61, No Iterations 21
min/max(T) = 1000, 1000
PIMPLE: iteration 10
Radiation solver iter: 0
DILUPBiCGStab:  Solving for ILambda_0_0, Initial residual = 3.63380197568e-17, Final residual = 9.91172503774e-64, No Iterations 2
DILUPBiCGStab:  Solving for ILambda_1_0, Initial residual = 4.11813540626e-17, Final residual = 9.04526933951e-63, No Iterations 2
DILUPBiCGStab:  Solving for ILambda_2_0, Initial residual = 4.44496571992e-17, Final residual = 4.6105262764e-63, No Iterations 2
DILUPBiCGStab:  Solving for ILambda_3_0, Initial residual = 4.01476997748e-17, Final residual = 6.03417203676e-63, No Iterations 2
DILUPBiCGStab:  Solving for ILambda_4_0, Initial residual = 4.39724928391e-17, Final residual = 8.51770902139e-64, No Iterations 2
DILUPBiCGStab:  Solving for ILambda_5_0, Initial residual = 3.75132947865e-17, Final residual = 5.66725687003e-63, No Iterations 2
DILUPBiCGStab:  Solving for ILambda_6_0, Initial residual = 4.71288356825e-17, Final residual = 1.43541137611e-63, No Iterations 2
DILUPBiCGStab:  Solving for ILambda_7_0, Initial residual = 4.19741848399e-17, Final residual = 9.34645008736e-64, No Iterations 2
DILUPBiCGStab:  Solving for ILambda_8_0, Initial residual = 4.10585403129e-17, Final residual = 2.97175902563e-61, No Iterations 21
DILUPBiCGStab:  Solving for ILambda_9_0, Initial residual = 4.5470320269e-17, Final residual = 1.47420061162e-61, No Iterations 26
DILUPBiCGStab:  Solving for ILambda_10_0, Initial residual = 4.7428592372e-17, Final residual = 2.26885474531e-61, No Iterations 28
DILUPBiCGStab:  Solving for ILambda_11_0, Initial residual = 5.53385578839e-17, Final residual = 1.02667003337e-61, No Iterations 30
DILUPBiCGStab:  Solving for ILambda_12_0, Initial residual = 5.09330903002e-17, Final residual = 4.37872847068e-61, No Iterations 29
DILUPBiCGStab:  Solving for ILambda_13_0, Initial residual = 4.20777613893e-17, Final residual = 1.15433474063e-61, No Iterations 28
DILUPBiCGStab:  Solving for ILambda_14_0, Initial residual = 4.90437098938e-17, Final residual = 3.45962519343e-61, No Iterations 24
DILUPBiCGStab:  Solving for ILambda_15_0, Initial residual = 4.37469045327e-17, Final residual = 3.5531471963e-61, No Iterations 20
DILUPBiCGStab:  Solving for ILambda_16_0, Initial residual = 3.85968053966e-17, Final residual = 1.01556541949e-63, No Iterations 6
DILUPBiCGStab:  Solving for ILambda_17_0, Initial residual = 4.32208584571e-17, Final residual = 8.80017534874e-61, No Iterations 6
DILUPBiCGStab:  Solving for ILambda_18_0, Initial residual = 4.49606937971e-17, Final residual = 9.01618766946e-65, No Iterations 6
DILUPBiCGStab:  Solving for ILambda_19_0, Initial residual = 4.24983587141e-17, Final residual = 1.07740875731e-65, No Iterations 6
DILUPBiCGStab:  Solving for ILambda_20_0, Initial residual = 3.86013438249e-17, Final residual = 2.29709508144e-62, No Iterations 6
DILUPBiCGStab:  Solving for ILambda_21_0, Initial residual = 3.34717512682e-17, Final residual = 6.65060860739e-65, No Iterations 6
DILUPBiCGStab:  Solving for ILambda_22_0, Initial residual = 3.96322256615e-17, Final residual = 8.61523716581e-61, No Iterations 5
DILUPBiCGStab:  Solving for ILambda_23_0, Initial residual = 4.00427901119e-17, Final residual = 1.96172703179e-67, No Iterations 5
DILUPBiCGStab:  Solving for ILambda_24_0, Initial residual = 3.89215539818e-17, Final residual = 7.74757179954e-61, No Iterations 20
DILUPBiCGStab:  Solving for ILambda_25_0, Initial residual = 4.75811117156e-17, Final residual = 9.49333368806e-61, No Iterations 26
DILUPBiCGStab:  Solving for ILambda_26_0, Initial residual = 4.99537696841e-17, Final residual = 4.85803449303e-61, No Iterations 29
DILUPBiCGStab:  Solving for ILambda_27_0, Initial residual = 4.6881731667e-17, Final residual = 5.66249168126e-62, No Iterations 29
DILUPBiCGStab:  Solving for ILambda_28_0, Initial residual = 4.78476999026e-17, Final residual = 1.89585647514e-61, No Iterations 30
DILUPBiCGStab:  Solving for ILambda_29_0, Initial residual = 5.51724391887e-17, Final residual = 3.23669707439e-61, No Iterations 30
DILUPBiCGStab:  Solving for ILambda_30_0, Initial residual = 4.18619032184e-17, Final residual = 4.28626690224e-62, No Iterations 26
DILUPBiCGStab:  Solving for ILambda_31_0, Initial residual = 3.94878006009e-17, Final residual = 5.83118750756e-62, No Iterations 21
DILUPBiCGStab:  Solving for ILambda_32_0, Initial residual = 1.92704277619e-16, Final residual = 3.89973725374e-62, No Iterations 2
DILUPBiCGStab:  Solving for ILambda_33_0, Initial residual = 1.89477261168e-16, Final residual = 4.20581841235e-63, No Iterations 2
DILUPBiCGStab:  Solving for ILambda_34_0, Initial residual = 1.84253394645e-16, Final residual = 1.01532215239e-62, No Iterations 2
DILUPBiCGStab:  Solving for ILambda_35_0, Initial residual = 1.25489032367e-16, Final residual = 3.42428171882e-63, No Iterations 2
DILUPBiCGStab:  Solving for ILambda_36_0, Initial residual = 1.25336101405e-16, Final residual = 2.07400459001e-63, No Iterations 2
DILUPBiCGStab:  Solving for ILambda_37_0, Initial residual = 1.84334969511e-16, Final residual = 1.48548857435e-62, No Iterations 2
DILUPBiCGStab:  Solving for ILambda_38_0, Initial residual = 2.38235018206e-16, Final residual = 1.50906410772e-62, No Iterations 2
DILUPBiCGStab:  Solving for ILambda_39_0, Initial residual = 2.22029843922e-16, Final residual = 4.91470841133e-63, No Iterations 2
DILUPBiCGStab:  Solving for ILambda_40_0, Initial residual = 1.80801485657e-16, Final residual = 4.35680618992e-63, No Iterations 21
DILUPBiCGStab:  Solving for ILambda_41_0, Initial residual = 1.83687028524e-16, Final residual = 4.92099671593e-61, No Iterations 25
DILUPBiCGStab:  Solving for ILambda_42_0, Initial residual = 2.42098535297e-16, Final residual = 4.30434917438e-61, No Iterations 27
DILUPBiCGStab:  Solving for ILambda_43_0, Initial residual = 1.99354634064e-16, Final residual = 7.4746103802e-61, No Iterations 32
DILUPBiCGStab:  Solving for ILambda_44_0, Initial residual = 1.27153129862e-16, Final residual = 7.35773065361e-61, No Iterations 29
DILUPBiCGStab:  Solving for ILambda_45_0, Initial residual = 2.32386489728e-16, Final residual = 5.37233480111e-61, No Iterations 27
DILUPBiCGStab:  Solving for ILambda_46_0, Initial residual = 2.46081623646e-16, Final residual = 8.34089493012e-61, No Iterations 25
DILUPBiCGStab:  Solving for ILambda_47_0, Initial residual = 2.00163111664e-16, Final residual = 1.73648139637e-61, No Iterations 19
DILUPBiCGStab:  Solving for ILambda_48_0, Initial residual = 2.31946684413e-16, Final residual = 6.68963530595e-62, No Iterations 6
DILUPBiCGStab:  Solving for ILambda_49_0, Initial residual = 2.53195245015e-16, Final residual = 5.70389219174e-66, No Iterations 6
DILUPBiCGStab:  Solving for ILambda_50_0, Initial residual = 1.66860702994e-16, Final residual = 3.06766656599e-62, No Iterations 7
DILUPBiCGStab:  Solving for ILambda_51_0, Initial residual = 1.29243096056e-16, Final residual = 7.57862920934e-62, No Iterations 6
DILUPBiCGStab:  Solving for ILambda_52_0, Initial residual = 1.28091264704e-16, Final residual = 3.96566127793e-63, No Iterations 6
DILUPBiCGStab:  Solving for ILambda_53_0, Initial residual = 1.90731173965e-16, Final residual = 1.44231844327e-64, No Iterations 6
DILUPBiCGStab:  Solving for ILambda_54_0, Initial residual = 1.85347785268e-16, Final residual = 1.21103434442e-65, No Iterations 6
DILUPBiCGStab:  Solving for ILambda_55_0, Initial residual = 1.94962513549e-16, Final residual = 4.52096470902e-61, No Iterations 6
DILUPBiCGStab:  Solving for ILambda_56_0, Initial residual = 2.29075412766e-16, Final residual = 1.63739393535e-62, No Iterations 21
DILUPBiCGStab:  Solving for ILambda_57_0, Initial residual = 2.41545691515e-16, Final residual = 6.02340217314e-61, No Iterations 25
DILUPBiCGStab:  Solving for ILambda_58_0, Initial residual = 2.07142704665e-16, Final residual = 6.12511351628e-61, No Iterations 28
DILUPBiCGStab:  Solving for ILambda_59_0, Initial residual = 1.81256603187e-16, Final residual = 2.90962506108e-61, No Iterations 30
DILUPBiCGStab:  Solving for ILambda_60_0, Initial residual = 2.62708603553e-16, Final residual = 6.74596867318e-61, No Iterations 30
DILUPBiCGStab:  Solving for ILambda_61_0, Initial residual = 2.26606279335e-16, Final residual = 1.22308535382e-61, No Iterations 29
DILUPBiCGStab:  Solving for ILambda_62_0, Initial residual = 2.325424109e-16, Final residual = 6.15703133799e-61, No Iterations 25
DILUPBiCGStab:  Solving for ILambda_63_0, Initial residual = 2.03054071964e-16, Final residual = 5.10070262139e-61, No Iterations 21
DILUPBiCGStab:  Solving for ILambda_64_0, Initial residual = 1.88497475821e-16, Final residual = 4.66235843771e-61, No Iterations 5
DILUPBiCGStab:  Solving for ILambda_65_0, Initial residual = 1.98689468825e-16, Final residual = 4.19390284545e-65, No Iterations 7
DILUPBiCGStab:  Solving for ILambda_66_0, Initial residual = 1.89615341989e-16, Final residual = 5.53575060495e-62, No Iterations 5
DILUPBiCGStab:  Solving for ILambda_67_0, Initial residual = 1.39609328595e-16, Final residual = 5.728711917e-64, No Iterations 6
DILUPBiCGStab:  Solving for ILambda_68_0, Initial residual = 1.31466049622e-16, Final residual = 1.17512970729e-62, No Iterations 6
DILUPBiCGStab:  Solving for ILambda_69_0, Initial residual = 1.58703954796e-16, Final residual = 6.20993049277e-61, No Iterations 6
DILUPBiCGStab:  Solving for ILambda_70_0, Initial residual = 2.39858102542e-16, Final residual = 7.31700335847e-61, No Iterations 6
DILUPBiCGStab:  Solving for ILambda_71_0, Initial residual = 2.31228725755e-16, Final residual = 6.0050481219e-64, No Iterations 6
DILUPBiCGStab:  Solving for ILambda_72_0, Initial residual = 1.74386293629e-16, Final residual = 2.74462845812e-61, No Iterations 21
DILUPBiCGStab:  Solving for ILambda_73_0, Initial residual = 2.02143751925e-16, Final residual = 2.29445215361e-61, No Iterations 24
DILUPBiCGStab:  Solving for ILambda_74_0, Initial residual = 2.10376386683e-16, Final residual = 1.5446221208e-61, No Iterations 30
DILUPBiCGStab:  Solving for ILambda_75_0, Initial residual = 1.29497773856e-16, Final residual = 3.28432232343e-61, No Iterations 30
DILUPBiCGStab:  Solving for ILambda_76_0, Initial residual = 1.42726328655e-16, Final residual = 1.76214478922e-61, No Iterations 29
DILUPBiCGStab:  Solving for ILambda_77_0, Initial residual = 2.3615685883e-16, Final residual = 6.41057953319e-62, No Iterations 30
DILUPBiCGStab:  Solving for ILambda_78_0, Initial residual = 2.38899870083e-16, Final residual = 6.57708542002e-61, No Iterations 25
DILUPBiCGStab:  Solving for ILambda_79_0, Initial residual = 2.00123654689e-16, Final residual = 9.02432402559e-61, No Iterations 20
DILUPBiCGStab:  Solving for ILambda_80_0, Initial residual = 2.22256775964e-16, Final residual = 2.47901715783e-62, No Iterations 2
DILUPBiCGStab:  Solving for ILambda_81_0, Initial residual = 2.30268384746e-16, Final residual = 2.04721297838e-62, No Iterations 2
DILUPBiCGStab:  Solving for ILambda_82_0, Initial residual = 1.60407243703e-16, Final residual = 3.51475595882e-63, No Iterations 2
DILUPBiCGStab:  Solving for ILambda_83_0, Initial residual = 1.29977785024e-16, Final residual = 1.62528847449e-63, No Iterations 2
DILUPBiCGStab:  Solving for ILambda_84_0, Initial residual = 1.43774479888e-16, Final residual = 2.46383507576e-63, No Iterations 2
DILUPBiCGStab:  Solving for ILambda_85_0, Initial residual = 2.02922821359e-16, Final residual = 1.07755068585e-62, No Iterations 2
DILUPBiCGStab:  Solving for ILambda_86_0, Initial residual = 1.89524318483e-16, Final residual = 8.62415657945e-63, No Iterations 2
DILUPBiCGStab:  Solving for ILambda_87_0, Initial residual = 1.78334821938e-16, Final residual = 1.68156230512e-62, No Iterations 2
DILUPBiCGStab:  Solving for ILambda_88_0, Initial residual = 2.16139271911e-16, Final residual = 2.97733304868e-61, No Iterations 21
DILUPBiCGStab:  Solving for ILambda_89_0, Initial residual = 2.68900581386e-16, Final residual = 2.4723925344e-61, No Iterations 25
DILUPBiCGStab:  Solving for ILambda_90_0, Initial residual = 2.14710322899e-16, Final residual = 8.38114192041e-61, No Iterations 28
DILUPBiCGStab:  Solving for ILambda_91_0, Initial residual = 1.91994891252e-16, Final residual = 6.70066185962e-61, No Iterations 27
DILUPBiCGStab:  Solving for ILambda_92_0, Initial residual = 1.25495607644e-16, Final residual = 2.07902084114e-61, No Iterations 31
DILUPBiCGStab:  Solving for ILambda_93_0, Initial residual = 2.14755319465e-16, Final residual = 6.47547881476e-61, No Iterations 29
DILUPBiCGStab:  Solving for ILambda_94_0, Initial residual = 2.32595873534e-16, Final residual = 3.46199664059e-61, No Iterations 25
DILUPBiCGStab:  Solving for ILambda_95_0, Initial residual = 1.97400188687e-16, Final residual = 5.28768976729e-61, No Iterations 21
DILUPBiCGStab:  Solving for ILambda_96_0, Initial residual = 4.00396113531e-17, Final residual = 9.83852431508e-61, No Iterations 6
DILUPBiCGStab:  Solving for ILambda_97_0, Initial residual = 4.26120185945e-17, Final residual = 1.07952863148e-62, No Iterations 5
DILUPBiCGStab:  Solving for ILambda_98_0, Initial residual = 4.16035288167e-17, Final residual = 5.32353572494e-61, No Iterations 6
DILUPBiCGStab:  Solving for ILambda_99_0, Initial residual = 4.22590542095e-17, Final residual = 1.25629926671e-61, No Iterations 5
DILUPBiCGStab:  Solving for ILambda_100_0, Initial residual = 4.1049181962e-17, Final residual = 9.73539276218e-62, No Iterations 5
DILUPBiCGStab:  Solving for ILambda_101_0, Initial residual = 4.54430790762e-17, Final residual = 8.18045557029e-66, No Iterations 6
DILUPBiCGStab:  Solving for ILambda_102_0, Initial residual = 4.52423684744e-17, Final residual = 1.34029924324e-65, No Iterations 5
DILUPBiCGStab:  Solving for ILambda_103_0, Initial residual = 4.27703191895e-17, Final residual = 1.22182303574e-62, No Iterations 5
DILUPBiCGStab:  Solving for ILambda_104_0, Initial residual = 3.77650567327e-17, Final residual = 2.14015140667e-61, No Iterations 20
DILUPBiCGStab:  Solving for ILambda_105_0, Initial residual = 4.66972733658e-17, Final residual = 3.98001342223e-62, No Iterations 25
DILUPBiCGStab:  Solving for ILambda_106_0, Initial residual = 4.23468936457e-17, Final residual = 2.15987885432e-61, No Iterations 29
DILUPBiCGStab:  Solving for ILambda_107_0, Initial residual = 4.78790254154e-17, Final residual = 7.94316819187e-62, No Iterations 29
DILUPBiCGStab:  Solving for ILambda_108_0, Initial residual = 4.66919674676e-17, Final residual = 2.18822330855e-62, No Iterations 29
DILUPBiCGStab:  Solving for ILambda_109_0, Initial residual = 5.40355429577e-17, Final residual = 1.28373328059e-61, No Iterations 26
DILUPBiCGStab:  Solving for ILambda_110_0, Initial residual = 5.26100010873e-17, Final residual = 2.10161550217e-61, No Iterations 25
DILUPBiCGStab:  Solving for ILambda_111_0, Initial residual = 4.47517614433e-17, Final residual = 2.39848947158e-61, No Iterations 21
DILUPBiCGStab:  Solving for ILambda_112_0, Initial residual = 4.33548469913e-17, Final residual = 5.40898979642e-63, No Iterations 2
DILUPBiCGStab:  Solving for ILambda_113_0, Initial residual = 4.64246675786e-17, Final residual = 9.04880228964e-63, No Iterations 2
DILUPBiCGStab:  Solving for ILambda_114_0, Initial residual = 4.41197859527e-17, Final residual = 2.72588641426e-63, No Iterations 2
DILUPBiCGStab:  Solving for ILambda_115_0, Initial residual = 4.07687846306e-17, Final residual = 1.70210018045e-63, No Iterations 2
DILUPBiCGStab:  Solving for ILambda_116_0, Initial residual = 4.49685012749e-17, Final residual = 1.0646796081e-63, No Iterations 2
DILUPBiCGStab:  Solving for ILambda_117_0, Initial residual = 3.88801079595e-17, Final residual = 4.01273969539e-63, No Iterations 2
DILUPBiCGStab:  Solving for ILambda_118_0, Initial residual = 4.10710375886e-17, Final residual = 5.37352756829e-63, No Iterations 2
DILUPBiCGStab:  Solving for ILambda_119_0, Initial residual = 3.9574880534e-17, Final residual = 5.99994820245e-64, No Iterations 2
DILUPBiCGStab:  Solving for ILambda_120_0, Initial residual = 4.36320336966e-17, Final residual = 2.75108589153e-62, No Iterations 21
DILUPBiCGStab:  Solving for ILambda_121_0, Initial residual = 5.02346237795e-17, Final residual = 9.15402625375e-61, No Iterations 25
DILUPBiCGStab:  Solving for ILambda_122_0, Initial residual = 5.26483108402e-17, Final residual = 2.90901372613e-61, No Iterations 27
DILUPBiCGStab:  Solving for ILambda_123_0, Initial residual = 4.56858225889e-17, Final residual = 7.65222977612e-61, No Iterations 30
DILUPBiCGStab:  Solving for ILambda_124_0, Initial residual = 4.13640437309e-17, Final residual = 8.40699130337e-61, No Iterations 34
DILUPBiCGStab:  Solving for ILambda_125_0, Initial residual = 3.87487829969e-17, Final residual = 1.77433222025e-62, No Iterations 31
DILUPBiCGStab:  Solving for ILambda_126_0, Initial residual = 4.77786860482e-17, Final residual = 2.85796756548e-61, No Iterations 27
DILUPBiCGStab:  Solving for ILambda_127_0, Initial residual = 4.14822101725e-17, Final residual = 9.05156359855e-62, No Iterations 20
min/max(T) = 1000, 1000
ExecutionTime = 1.35 s  ClockTime = 1 s

writeObjects writeObjects1.writeObjects write:
    writing object a
    writing object qem
End

