/*---------------------------------------------------------------------------*\
| =========                 |                                                 |
| \\      /  F ield         | OpenFOAM: The Open Source CFD Toolbox           |
|  \\    /   O peration     | Version:  2306                                  |
|   \\  /    A nd           | Website:  www.openfoam.com                      |
|    \\/     M anipulation  |                                                 |
\*---------------------------------------------------------------------------*/
Build  : _fbf00d6b-20230626 OPENFOAM=2306 version=2306
Arch   : "LSB;label=32;scalar=64"
Exec   : fireRADFoam_MaCFP
Date   : Mar 13 2024
Time   : 08:02:28
Host   : pop-os
PID    : 201115
I/O    : uncollated
Case   : /home/rafay/Desktop/Study/Radiative_Heat_Transfer/Local_copy_RHT2324/01_Projects/02_Rafay/Case_1_q1D_SolidAngle/new_case3/th_6-ph_12/tau_0.1/res_8
nProcs : 1
trapFpe: Floating point exception trapping enabled (FOAM_SIGFPE).
fileModificationChecking : Monitoring run-time modified files using timeStampMaster (fileModificationSkew 5, maxFileModificationPolls 20)
allowSystemOperations : Allowing user-supplied system call operations

// * * * * * * * * * * * * * * * * * * * * * * * * * * * * * * * * * * * * * //
Create time

Create mesh for time = 0


PIMPLE: no residual control data found. Calculations will employ 10 corrector loops

Reading thermophysical properties

Selecting thermodynamics package 
{
    type            hePsiThermo;
    mixture         singleStepReactingMixture;
    transport       sutherland;
    thermo          janaf;
    energy          sensibleEnthalpy;
    equationOfState perfectGas;
    specie          specie;
}

Selecting chemistryReader foamChemistryReader
    elements not defined in "/home/rafay/Desktop/Study/Radiative_Heat_Transfer/Local_copy_RHT2324/01_Projects/02_Rafay/Case_1_q1D_SolidAngle/new_case3/th_6-ph_12/tau_0.1/res_8/constant/reactions"
Fuel heat of combustion :47168962.4726
stoichiometric air-fuel ratio :14.6914056505
stoichiometric oxygen-fuel ratio :3.42181919285
Maximum products mass concentrations:
    H2O: 0.0818486943001
    CO2: 0.199950099979
    N2: 0.718201205721
Creating component thermo properties:
    multi-component carrier - 6 species
    no liquid components
    no solid components
Creating field rho


Reading field U

Reading/calculating face flux field phi

Selecting radiationModel fvDOM
Selecting absorptionEmissionModel constantAbsorptionEmission
Selecting scatterModel none
Selecting sootModel none
fvDOM : Allocated 288 rays with average orientation:
	I0 : dAve : 	(0.000387488209079 0.00591192763451 0.0163624617374) : omega : 	0.0175372336349 : d : 	(0.0169275754541 0.25826489366 0.965925826289)
	I1 : dAve : 	(0.00115583459655 0.00581077291359 0.0163624617374) : omega : 	0.0175372336349 : d : 	(0.050493090853 0.253845909725 0.965925826289)
	I2 : dAve : 	(0.00190440433361 0.00561019425706 0.0163624617374) : omega : 	0.0175372336349 : d : 	(0.083194655468 0.245083551895 0.965925826289)
	I3 : dAve : 	(0.00262038918453 0.00531362362136 0.0163624617374) : omega : 	0.0175372336349 : d : 	(0.114472736462 0.232127746542 0.965925826289)
	I4 : dAve : 	(0.00329153844998 0.00492613541228 0.0163624617374) : omega : 	0.0175372336349 : d : 	(0.143792157198 0.215200171088 0.965925826289)
	I5 : dAve : 	(0.00390636857998 0.00445435966052 0.0163624617374) : omega : 	0.0175372336349 : d : 	(0.170651254257 0.194590461042 0.965925826289)
	I6 : dAve : 	(0.00445435966052 0.00390636857998 0.0163624617374) : omega : 	0.0175372336349 : d : 	(0.194590461042 0.170651254257 0.965925826289)
	I7 : dAve : 	(0.00492613541228 0.00329153844998 0.0163624617374) : omega : 	0.0175372336349 : d : 	(0.215200171088 0.143792157198 0.965925826289)
	I8 : dAve : 	(0.00531362362136 0.00262038918453 0.0163624617374) : omega : 	0.0175372336349 : d : 	(0.232127746542 0.114472736462 0.965925826289)
	I9 : dAve : 	(0.00561019425706 0.00190440433361 0.0163624617374) : omega : 	0.0175372336349 : d : 	(0.245083551895 0.083194655468 0.965925826289)
	I10 : dAve : 	(0.00581077291359 0.00115583459655 0.0163624617374) : omega : 	0.0175372336349 : d : 	(0.253845909725 0.050493090853 0.965925826289)
	I11 : dAve : 	(0.00591192763451 0.000387488209079 0.0163624617374) : omega : 	0.0175372336349 : d : 	(0.25826489366 0.0169275754541 0.965925826289)
	I12 : dAve : 	(0.00591192763451 -0.000387488209079 0.0163624617374) : omega : 	0.0175372336349 : d : 	(0.25826489366 -0.0169275754541 0.965925826289)
	I13 : dAve : 	(0.00581077291359 -0.00115583459655 0.0163624617374) : omega : 	0.0175372336349 : d : 	(0.253845909725 -0.050493090853 0.965925826289)
	I14 : dAve : 	(0.00561019425706 -0.00190440433361 0.0163624617374) : omega : 	0.0175372336349 : d : 	(0.245083551895 -0.083194655468 0.965925826289)
	I15 : dAve : 	(0.00531362362136 -0.00262038918453 0.0163624617374) : omega : 	0.0175372336349 : d : 	(0.232127746542 -0.114472736462 0.965925826289)
	I16 : dAve : 	(0.00492613541228 -0.00329153844998 0.0163624617374) : omega : 	0.0175372336349 : d : 	(0.215200171088 -0.143792157198 0.965925826289)
	I17 : dAve : 	(0.00445435966052 -0.00390636857998 0.0163624617374) : omega : 	0.0175372336349 : d : 	(0.194590461042 -0.170651254257 0.965925826289)
	I18 : dAve : 	(0.00390636857998 -0.00445435966052 0.0163624617374) : omega : 	0.0175372336349 : d : 	(0.170651254257 -0.194590461042 0.965925826289)
	I19 : dAve : 	(0.00329153844998 -0.00492613541228 0.0163624617374) : omega : 	0.0175372336349 : d : 	(0.143792157198 -0.215200171088 0.965925826289)
	I20 : dAve : 	(0.00262038918453 -0.00531362362136 0.0163624617374) : omega : 	0.0175372336349 : d : 	(0.114472736462 -0.232127746542 0.965925826289)
	I21 : dAve : 	(0.00190440433361 -0.00561019425706 0.0163624617374) : omega : 	0.0175372336349 : d : 	(0.083194655468 -0.245083551895 0.965925826289)
	I22 : dAve : 	(0.00115583459655 -0.00581077291359 0.0163624617374) : omega : 	0.0175372336349 : d : 	(0.050493090853 -0.253845909725 0.965925826289)
	I23 : dAve : 	(0.000387488209079 -0.00591192763451 0.0163624617374) : omega : 	0.0175372336349 : d : 	(0.0169275754541 -0.25826489366 0.965925826289)
	I24 : dAve : 	(-0.000387488209079 -0.00591192763451 0.0163624617374) : omega : 	0.0175372336349 : d : 	(-0.0169275754541 -0.25826489366 0.965925826289)
	I25 : dAve : 	(-0.00115583459655 -0.00581077291359 0.0163624617374) : omega : 	0.0175372336349 : d : 	(-0.050493090853 -0.253845909725 0.965925826289)
	I26 : dAve : 	(-0.00190440433361 -0.00561019425706 0.0163624617374) : omega : 	0.0175372336349 : d : 	(-0.083194655468 -0.245083551895 0.965925826289)
	I27 : dAve : 	(-0.00262038918453 -0.00531362362136 0.0163624617374) : omega : 	0.0175372336349 : d : 	(-0.114472736462 -0.232127746542 0.965925826289)
	I28 : dAve : 	(-0.00329153844998 -0.00492613541228 0.0163624617374) : omega : 	0.0175372336349 : d : 	(-0.143792157198 -0.215200171088 0.965925826289)
	I29 : dAve : 	(-0.00390636857998 -0.00445435966052 0.0163624617374) : omega : 	0.0175372336349 : d : 	(-0.170651254257 -0.194590461042 0.965925826289)
	I30 : dAve : 	(-0.00445435966052 -0.00390636857998 0.0163624617374) : omega : 	0.0175372336349 : d : 	(-0.194590461042 -0.170651254257 0.965925826289)
	I31 : dAve : 	(-0.00492613541228 -0.00329153844998 0.0163624617374) : omega : 	0.0175372336349 : d : 	(-0.215200171088 -0.143792157198 0.965925826289)
	I32 : dAve : 	(-0.00531362362136 -0.00262038918453 0.0163624617374) : omega : 	0.0175372336349 : d : 	(-0.232127746542 -0.114472736462 0.965925826289)
	I33 : dAve : 	(-0.00561019425706 -0.00190440433361 0.0163624617374) : omega : 	0.0175372336349 : d : 	(-0.245083551895 -0.083194655468 0.965925826289)
	I34 : dAve : 	(-0.00581077291359 -0.00115583459655 0.0163624617374) : omega : 	0.0175372336349 : d : 	(-0.253845909725 -0.050493090853 0.965925826289)
	I35 : dAve : 	(-0.00591192763451 -0.000387488209079 0.0163624617374) : omega : 	0.0175372336349 : d : 	(-0.25826489366 -0.0169275754541 0.965925826289)
	I36 : dAve : 	(-0.00591192763451 0.000387488209079 0.0163624617374) : omega : 	0.0175372336349 : d : 	(-0.25826489366 0.0169275754541 0.965925826289)
	I37 : dAve : 	(-0.00581077291359 0.00115583459655 0.0163624617374) : omega : 	0.0175372336349 : d : 	(-0.253845909725 0.050493090853 0.965925826289)
	I38 : dAve : 	(-0.00561019425706 0.00190440433361 0.0163624617374) : omega : 	0.0175372336349 : d : 	(-0.245083551895 0.083194655468 0.965925826289)
	I39 : dAve : 	(-0.00531362362136 0.00262038918453 0.0163624617374) : omega : 	0.0175372336349 : d : 	(-0.232127746542 0.114472736462 0.965925826289)
	I40 : dAve : 	(-0.00492613541228 0.00329153844998 0.0163624617374) : omega : 	0.0175372336349 : d : 	(-0.215200171088 0.143792157198 0.965925826289)
	I41 : dAve : 	(-0.00445435966052 0.00390636857998 0.0163624617374) : omega : 	0.0175372336349 : d : 	(-0.194590461042 0.170651254257 0.965925826289)
	I42 : dAve : 	(-0.00390636857998 0.00445435966052 0.0163624617374) : omega : 	0.0175372336349 : d : 	(-0.170651254257 0.194590461042 0.965925826289)
	I43 : dAve : 	(-0.00329153844998 0.00492613541228 0.0163624617374) : omega : 	0.0175372336349 : d : 	(-0.143792157198 0.215200171088 0.965925826289)
	I44 : dAve : 	(-0.00262038918453 0.00531362362136 0.0163624617374) : omega : 	0.0175372336349 : d : 	(-0.114472736462 0.232127746542 0.965925826289)
	I45 : dAve : 	(-0.00190440433361 0.00561019425706 0.0163624617374) : omega : 	0.0175372336349 : d : 	(-0.083194655468 0.245083551895 0.965925826289)
	I46 : dAve : 	(-0.00115583459655 0.00581077291359 0.0163624617374) : omega : 	0.0175372336349 : d : 	(-0.050493090853 0.253845909725 0.965925826289)
	I47 : dAve : 	(-0.000387488209079 0.00591192763451 0.0163624617374) : omega : 	0.0175372336349 : d : 	(-0.0169275754541 0.25826489366 0.965925826289)
	I48 : dAve : 	(0.00223973005487 0.034171677215 0.0327249234749) : omega : 	0.0479126133149 : d : 	(0.0462469961895 0.70559281129 0.707106781187)
	I49 : dAve : 	(0.00668086776241 0.0335869903436 0.0327249234749) : omega : 	0.0479126133149 : d : 	(0.137949689641 0.693519922661 0.707106781187)
	I50 : dAve : 	(0.0110076939702 0.0324276207555 0.0327249234749) : omega : 	0.0479126133149 : d : 	(0.227292025657 0.669580715876 0.707106781187)
	I51 : dAve : 	(0.0151461754823 0.0307134055855 0.0327249234749) : omega : 	0.0479126133149 : d : 	(0.312745332096 0.634184797399 0.707106781187)
	I52 : dAve : 	(0.0190255017326 0.0284736755306 0.0327249234749) : omega : 	0.0479126133149 : d : 	(0.392847479194 0.58793780121 0.707106781187)
	I53 : dAve : 	(0.0225792963734 0.025746752993 0.0327249234749) : omega : 	0.0479126133149 : d : 	(0.466227897004 0.531631026234 0.707106781187)
	I54 : dAve : 	(0.025746752993 0.0225792963734 0.0327249234749) : omega : 	0.0479126133149 : d : 	(0.531631026234 0.466227897004 0.707106781187)
	I55 : dAve : 	(0.0284736755306 0.0190255017326 0.0327249234749) : omega : 	0.0479126133149 : d : 	(0.58793780121 0.392847479194 0.707106781187)
	I56 : dAve : 	(0.0307134055855 0.0151461754823 0.0327249234749) : omega : 	0.0479126133149 : d : 	(0.634184797399 0.312745332096 0.707106781187)
	I57 : dAve : 	(0.0324276207555 0.0110076939702 0.0327249234749) : omega : 	0.0479126133149 : d : 	(0.669580715876 0.227292025657 0.707106781187)
	I58 : dAve : 	(0.0335869903436 0.00668086776241 0.0327249234749) : omega : 	0.0479126133149 : d : 	(0.693519922661 0.137949689641 0.707106781187)
	I59 : dAve : 	(0.034171677215 0.00223973005487 0.0327249234749) : omega : 	0.0479126133149 : d : 	(0.70559281129 0.0462469961895 0.707106781187)
	I60 : dAve : 	(0.034171677215 -0.00223973005487 0.0327249234749) : omega : 	0.0479126133149 : d : 	(0.70559281129 -0.0462469961895 0.707106781187)
	I61 : dAve : 	(0.0335869903436 -0.00668086776241 0.0327249234749) : omega : 	0.0479126133149 : d : 	(0.693519922661 -0.137949689641 0.707106781187)
	I62 : dAve : 	(0.0324276207555 -0.0110076939702 0.0327249234749) : omega : 	0.0479126133149 : d : 	(0.669580715876 -0.227292025657 0.707106781187)
	I63 : dAve : 	(0.0307134055855 -0.0151461754823 0.0327249234749) : omega : 	0.0479126133149 : d : 	(0.634184797399 -0.312745332096 0.707106781187)
	I64 : dAve : 	(0.0284736755306 -0.0190255017326 0.0327249234749) : omega : 	0.0479126133149 : d : 	(0.58793780121 -0.392847479194 0.707106781187)
	I65 : dAve : 	(0.025746752993 -0.0225792963734 0.0327249234749) : omega : 	0.0479126133149 : d : 	(0.531631026234 -0.466227897004 0.707106781187)
	I66 : dAve : 	(0.0225792963734 -0.025746752993 0.0327249234749) : omega : 	0.0479126133149 : d : 	(0.466227897004 -0.531631026234 0.707106781187)
	I67 : dAve : 	(0.0190255017326 -0.0284736755306 0.0327249234749) : omega : 	0.0479126133149 : d : 	(0.392847479194 -0.58793780121 0.707106781187)
	I68 : dAve : 	(0.0151461754823 -0.0307134055855 0.0327249234749) : omega : 	0.0479126133149 : d : 	(0.312745332096 -0.634184797399 0.707106781187)
	I69 : dAve : 	(0.0110076939702 -0.0324276207555 0.0327249234749) : omega : 	0.0479126133149 : d : 	(0.227292025657 -0.669580715876 0.707106781187)
	I70 : dAve : 	(0.00668086776241 -0.0335869903436 0.0327249234749) : omega : 	0.0479126133149 : d : 	(0.137949689641 -0.693519922661 0.707106781187)
	I71 : dAve : 	(0.00223973005487 -0.034171677215 0.0327249234749) : omega : 	0.0479126133149 : d : 	(0.0462469961895 -0.70559281129 0.707106781187)
	I72 : dAve : 	(-0.00223973005487 -0.034171677215 0.0327249234749) : omega : 	0.0479126133149 : d : 	(-0.0462469961895 -0.70559281129 0.707106781187)
	I73 : dAve : 	(-0.00668086776241 -0.0335869903436 0.0327249234749) : omega : 	0.0479126133149 : d : 	(-0.137949689641 -0.693519922661 0.707106781187)
	I74 : dAve : 	(-0.0110076939702 -0.0324276207555 0.0327249234749) : omega : 	0.0479126133149 : d : 	(-0.227292025657 -0.669580715876 0.707106781187)
	I75 : dAve : 	(-0.0151461754823 -0.0307134055855 0.0327249234749) : omega : 	0.0479126133149 : d : 	(-0.312745332096 -0.634184797399 0.707106781187)
	I76 : dAve : 	(-0.0190255017326 -0.0284736755306 0.0327249234749) : omega : 	0.0479126133149 : d : 	(-0.392847479194 -0.58793780121 0.707106781187)
	I77 : dAve : 	(-0.0225792963734 -0.025746752993 0.0327249234749) : omega : 	0.0479126133149 : d : 	(-0.466227897004 -0.531631026234 0.707106781187)
	I78 : dAve : 	(-0.025746752993 -0.0225792963734 0.0327249234749) : omega : 	0.0479126133149 : d : 	(-0.531631026234 -0.466227897004 0.707106781187)
	I79 : dAve : 	(-0.0284736755306 -0.0190255017326 0.0327249234749) : omega : 	0.0479126133149 : d : 	(-0.58793780121 -0.392847479194 0.707106781187)
	I80 : dAve : 	(-0.0307134055855 -0.0151461754823 0.0327249234749) : omega : 	0.0479126133149 : d : 	(-0.634184797399 -0.312745332096 0.707106781187)
	I81 : dAve : 	(-0.0324276207555 -0.0110076939702 0.0327249234749) : omega : 	0.0479126133149 : d : 	(-0.669580715876 -0.227292025657 0.707106781187)
	I82 : dAve : 	(-0.0335869903436 -0.00668086776241 0.0327249234749) : omega : 	0.0479126133149 : d : 	(-0.693519922661 -0.137949689641 0.707106781187)
	I83 : dAve : 	(-0.034171677215 -0.00223973005487 0.0327249234749) : omega : 	0.0479126133149 : d : 	(-0.70559281129 -0.0462469961895 0.707106781187)
	I84 : dAve : 	(-0.034171677215 0.00223973005487 0.0327249234749) : omega : 	0.0479126133149 : d : 	(-0.70559281129 0.0462469961895 0.707106781187)
	I85 : dAve : 	(-0.0335869903436 0.00668086776241 0.0327249234749) : omega : 	0.0479126133149 : d : 	(-0.693519922661 0.137949689641 0.707106781187)
	I86 : dAve : 	(-0.0324276207555 0.0110076939702 0.0327249234749) : omega : 	0.0479126133149 : d : 	(-0.669580715876 0.227292025657 0.707106781187)
	I87 : dAve : 	(-0.0307134055855 0.0151461754823 0.0327249234749) : omega : 	0.0479126133149 : d : 	(-0.634184797399 0.312745332096 0.707106781187)
	I88 : dAve : 	(-0.0284736755306 0.0190255017326 0.0327249234749) : omega : 	0.0479126133149 : d : 	(-0.58793780121 0.392847479194 0.707106781187)
	I89 : dAve : 	(-0.025746752993 0.0225792963734 0.0327249234749) : omega : 	0.0479126133149 : d : 	(-0.531631026234 0.466227897004 0.707106781187)
	I90 : dAve : 	(-0.0225792963734 0.025746752993 0.0327249234749) : omega : 	0.0479126133149 : d : 	(-0.466227897004 0.531631026234 0.707106781187)
	I91 : dAve : 	(-0.0190255017326 0.0284736755306 0.0327249234749) : omega : 	0.0479126133149 : d : 	(-0.392847479194 0.58793780121 0.707106781187)
	I92 : dAve : 	(-0.0151461754823 0.0307134055855 0.0327249234749) : omega : 	0.0479126133149 : d : 	(-0.312745332096 0.634184797399 0.707106781187)
	I93 : dAve : 	(-0.0110076939702 0.0324276207555 0.0327249234749) : omega : 	0.0479126133149 : d : 	(-0.227292025657 0.669580715876 0.707106781187)
	I94 : dAve : 	(-0.00668086776241 0.0335869903436 0.0327249234749) : omega : 	0.0479126133149 : d : 	(-0.137949689641 0.693519922661 0.707106781187)
	I95 : dAve : 	(-0.00223973005487 0.034171677215 0.0327249234749) : omega : 	0.0479126133149 : d : 	(-0.0462469961895 0.70559281129 0.707106781187)
	I96 : dAve : 	(0.00409197190067 0.0624314267954 0.0163624617374) : omega : 	0.0654498469498 : d : 	(0.0631745716435 0.963857704949 0.258819045103)
	I97 : dAve : 	(0.0122059009283 0.0613632077737 0.0163624617374) : omega : 	0.0654498469498 : d : 	(0.188442780494 0.947365832386 0.258819045103)
	I98 : dAve : 	(0.0201109836069 0.0592450472539 0.0163624617374) : omega : 	0.0654498469498 : d : 	(0.310486681125 0.914664267771 0.258819045103)
	I99 : dAve : 	(0.0276719617802 0.0561131875497 0.0163624617374) : omega : 	0.0654498469498 : d : 	(0.427218068558 0.866312543941 0.258819045103)
	I100 : dAve : 	(0.0347594650153 0.052021215649 0.0163624617374) : omega : 	0.0654498469498 : d : 	(0.536639636391 0.803137972298 0.258819045103)
	I101 : dAve : 	(0.0412522241668 0.0470391463256 0.0163624617374) : omega : 	0.0654498469498 : d : 	(0.636879151261 0.726221487276 0.258819045103)
	I102 : dAve : 	(0.0470391463256 0.0412522241668 0.0163624617374) : omega : 	0.0654498469498 : d : 	(0.726221487276 0.636879151261 0.258819045103)
	I103 : dAve : 	(0.052021215649 0.0347594650153 0.0163624617374) : omega : 	0.0654498469498 : d : 	(0.803137972298 0.536639636391 0.258819045103)
	I104 : dAve : 	(0.0561131875497 0.0276719617802 0.0163624617374) : omega : 	0.0654498469498 : d : 	(0.866312543941 0.427218068558 0.258819045103)
	I105 : dAve : 	(0.0592450472539 0.0201109836069 0.0163624617374) : omega : 	0.0654498469498 : d : 	(0.914664267771 0.310486681125 0.258819045103)
	I106 : dAve : 	(0.0613632077737 0.0122059009283 0.0163624617374) : omega : 	0.0654498469498 : d : 	(0.947365832386 0.188442780494 0.258819045103)
	I107 : dAve : 	(0.0624314267954 0.00409197190067 0.0163624617374) : omega : 	0.0654498469498 : d : 	(0.963857704949 0.0631745716435 0.258819045103)
	I108 : dAve : 	(0.0624314267954 -0.00409197190067 0.0163624617374) : omega : 	0.0654498469498 : d : 	(0.963857704949 -0.0631745716435 0.258819045103)
	I109 : dAve : 	(0.0613632077737 -0.0122059009283 0.0163624617374) : omega : 	0.0654498469498 : d : 	(0.947365832386 -0.188442780494 0.258819045103)
	I110 : dAve : 	(0.0592450472539 -0.0201109836069 0.0163624617374) : omega : 	0.0654498469498 : d : 	(0.914664267771 -0.310486681125 0.258819045103)
	I111 : dAve : 	(0.0561131875497 -0.0276719617802 0.0163624617374) : omega : 	0.0654498469498 : d : 	(0.866312543941 -0.427218068558 0.258819045103)
	I112 : dAve : 	(0.052021215649 -0.0347594650153 0.0163624617374) : omega : 	0.0654498469498 : d : 	(0.803137972298 -0.536639636391 0.258819045103)
	I113 : dAve : 	(0.0470391463256 -0.0412522241668 0.0163624617374) : omega : 	0.0654498469498 : d : 	(0.726221487276 -0.636879151261 0.258819045103)
	I114 : dAve : 	(0.0412522241668 -0.0470391463256 0.0163624617374) : omega : 	0.0654498469498 : d : 	(0.636879151261 -0.726221487276 0.258819045103)
	I115 : dAve : 	(0.0347594650153 -0.052021215649 0.0163624617374) : omega : 	0.0654498469498 : d : 	(0.536639636391 -0.803137972298 0.258819045103)
	I116 : dAve : 	(0.0276719617802 -0.0561131875497 0.0163624617374) : omega : 	0.0654498469498 : d : 	(0.427218068558 -0.866312543941 0.258819045103)
	I117 : dAve : 	(0.0201109836069 -0.0592450472539 0.0163624617374) : omega : 	0.0654498469498 : d : 	(0.310486681125 -0.914664267771 0.258819045103)
	I118 : dAve : 	(0.0122059009283 -0.0613632077737 0.0163624617374) : omega : 	0.0654498469498 : d : 	(0.188442780494 -0.947365832386 0.258819045103)
	I119 : dAve : 	(0.00409197190067 -0.0624314267954 0.0163624617374) : omega : 	0.0654498469498 : d : 	(0.0631745716435 -0.963857704949 0.258819045103)
	I120 : dAve : 	(-0.00409197190067 -0.0624314267954 0.0163624617374) : omega : 	0.0654498469498 : d : 	(-0.0631745716435 -0.963857704949 0.258819045103)
	I121 : dAve : 	(-0.0122059009283 -0.0613632077737 0.0163624617374) : omega : 	0.0654498469498 : d : 	(-0.188442780494 -0.947365832386 0.258819045103)
	I122 : dAve : 	(-0.0201109836069 -0.0592450472539 0.0163624617374) : omega : 	0.0654498469498 : d : 	(-0.310486681125 -0.914664267771 0.258819045103)
	I123 : dAve : 	(-0.0276719617802 -0.0561131875497 0.0163624617374) : omega : 	0.0654498469498 : d : 	(-0.427218068558 -0.866312543941 0.258819045103)
	I124 : dAve : 	(-0.0347594650153 -0.052021215649 0.0163624617374) : omega : 	0.0654498469498 : d : 	(-0.536639636391 -0.803137972298 0.258819045103)
	I125 : dAve : 	(-0.0412522241668 -0.0470391463256 0.0163624617374) : omega : 	0.0654498469498 : d : 	(-0.636879151261 -0.726221487276 0.258819045103)
	I126 : dAve : 	(-0.0470391463256 -0.0412522241668 0.0163624617374) : omega : 	0.0654498469498 : d : 	(-0.726221487276 -0.636879151261 0.258819045103)
	I127 : dAve : 	(-0.052021215649 -0.0347594650153 0.0163624617374) : omega : 	0.0654498469498 : d : 	(-0.803137972298 -0.536639636391 0.258819045103)
	I128 : dAve : 	(-0.0561131875497 -0.0276719617802 0.0163624617374) : omega : 	0.0654498469498 : d : 	(-0.866312543941 -0.427218068558 0.258819045103)
	I129 : dAve : 	(-0.0592450472539 -0.0201109836069 0.0163624617374) : omega : 	0.0654498469498 : d : 	(-0.914664267771 -0.310486681125 0.258819045103)
	I130 : dAve : 	(-0.0613632077737 -0.0122059009283 0.0163624617374) : omega : 	0.0654498469498 : d : 	(-0.947365832386 -0.188442780494 0.258819045103)
	I131 : dAve : 	(-0.0624314267954 -0.00409197190067 0.0163624617374) : omega : 	0.0654498469498 : d : 	(-0.963857704949 -0.0631745716435 0.258819045103)
	I132 : dAve : 	(-0.0624314267954 0.00409197190067 0.0163624617374) : omega : 	0.0654498469498 : d : 	(-0.963857704949 0.0631745716435 0.258819045103)
	I133 : dAve : 	(-0.0613632077737 0.0122059009283 0.0163624617374) : omega : 	0.0654498469498 : d : 	(-0.947365832386 0.188442780494 0.258819045103)
	I134 : dAve : 	(-0.0592450472539 0.0201109836069 0.0163624617374) : omega : 	0.0654498469498 : d : 	(-0.914664267771 0.310486681125 0.258819045103)
	I135 : dAve : 	(-0.0561131875497 0.0276719617802 0.0163624617374) : omega : 	0.0654498469498 : d : 	(-0.866312543941 0.427218068558 0.258819045103)
	I136 : dAve : 	(-0.052021215649 0.0347594650153 0.0163624617374) : omega : 	0.0654498469498 : d : 	(-0.803137972298 0.536639636391 0.258819045103)
	I137 : dAve : 	(-0.0470391463256 0.0412522241668 0.0163624617374) : omega : 	0.0654498469498 : d : 	(-0.726221487276 0.636879151261 0.258819045103)
	I138 : dAve : 	(-0.0412522241668 0.0470391463256 0.0163624617374) : omega : 	0.0654498469498 : d : 	(-0.636879151261 0.726221487276 0.258819045103)
	I139 : dAve : 	(-0.0347594650153 0.052021215649 0.0163624617374) : omega : 	0.0654498469498 : d : 	(-0.536639636391 0.803137972298 0.258819045103)
	I140 : dAve : 	(-0.0276719617802 0.0561131875497 0.0163624617374) : omega : 	0.0654498469498 : d : 	(-0.427218068558 0.866312543941 0.258819045103)
	I141 : dAve : 	(-0.0201109836069 0.0592450472539 0.0163624617374) : omega : 	0.0654498469498 : d : 	(-0.310486681125 0.914664267771 0.258819045103)
	I142 : dAve : 	(-0.0122059009283 0.0613632077737 0.0163624617374) : omega : 	0.0654498469498 : d : 	(-0.188442780494 0.947365832386 0.258819045103)
	I143 : dAve : 	(-0.00409197190067 0.0624314267954 0.0163624617374) : omega : 	0.0654498469498 : d : 	(-0.0631745716435 0.963857704949 0.258819045103)
	I144 : dAve : 	(0.00409197190067 0.0624314267954 -0.0163624617374) : omega : 	0.0654498469498 : d : 	(0.0631745716435 0.963857704949 -0.258819045103)
	I145 : dAve : 	(0.0122059009283 0.0613632077737 -0.0163624617374) : omega : 	0.0654498469498 : d : 	(0.188442780494 0.947365832386 -0.258819045103)
	I146 : dAve : 	(0.0201109836069 0.0592450472539 -0.0163624617374) : omega : 	0.0654498469498 : d : 	(0.310486681125 0.914664267771 -0.258819045103)
	I147 : dAve : 	(0.0276719617802 0.0561131875497 -0.0163624617374) : omega : 	0.0654498469498 : d : 	(0.427218068558 0.866312543941 -0.258819045103)
	I148 : dAve : 	(0.0347594650153 0.052021215649 -0.0163624617374) : omega : 	0.0654498469498 : d : 	(0.536639636391 0.803137972298 -0.258819045103)
	I149 : dAve : 	(0.0412522241668 0.0470391463256 -0.0163624617374) : omega : 	0.0654498469498 : d : 	(0.636879151261 0.726221487276 -0.258819045103)
	I150 : dAve : 	(0.0470391463256 0.0412522241668 -0.0163624617374) : omega : 	0.0654498469498 : d : 	(0.726221487276 0.636879151261 -0.258819045103)
	I151 : dAve : 	(0.052021215649 0.0347594650153 -0.0163624617374) : omega : 	0.0654498469498 : d : 	(0.803137972298 0.536639636391 -0.258819045103)
	I152 : dAve : 	(0.0561131875497 0.0276719617802 -0.0163624617374) : omega : 	0.0654498469498 : d : 	(0.866312543941 0.427218068558 -0.258819045103)
	I153 : dAve : 	(0.0592450472539 0.0201109836069 -0.0163624617374) : omega : 	0.0654498469498 : d : 	(0.914664267771 0.310486681125 -0.258819045103)
	I154 : dAve : 	(0.0613632077737 0.0122059009283 -0.0163624617374) : omega : 	0.0654498469498 : d : 	(0.947365832386 0.188442780494 -0.258819045103)
	I155 : dAve : 	(0.0624314267954 0.00409197190067 -0.0163624617374) : omega : 	0.0654498469498 : d : 	(0.963857704949 0.0631745716435 -0.258819045103)
	I156 : dAve : 	(0.0624314267954 -0.00409197190067 -0.0163624617374) : omega : 	0.0654498469498 : d : 	(0.963857704949 -0.0631745716435 -0.258819045103)
	I157 : dAve : 	(0.0613632077737 -0.0122059009283 -0.0163624617374) : omega : 	0.0654498469498 : d : 	(0.947365832386 -0.188442780494 -0.258819045103)
	I158 : dAve : 	(0.0592450472539 -0.0201109836069 -0.0163624617374) : omega : 	0.0654498469498 : d : 	(0.914664267771 -0.310486681125 -0.258819045103)
	I159 : dAve : 	(0.0561131875497 -0.0276719617802 -0.0163624617374) : omega : 	0.0654498469498 : d : 	(0.866312543941 -0.427218068558 -0.258819045103)
	I160 : dAve : 	(0.052021215649 -0.0347594650153 -0.0163624617374) : omega : 	0.0654498469498 : d : 	(0.803137972298 -0.536639636391 -0.258819045103)
	I161 : dAve : 	(0.0470391463256 -0.0412522241668 -0.0163624617374) : omega : 	0.0654498469498 : d : 	(0.726221487276 -0.636879151261 -0.258819045103)
	I162 : dAve : 	(0.0412522241668 -0.0470391463256 -0.0163624617374) : omega : 	0.0654498469498 : d : 	(0.636879151261 -0.726221487276 -0.258819045103)
	I163 : dAve : 	(0.0347594650153 -0.052021215649 -0.0163624617374) : omega : 	0.0654498469498 : d : 	(0.536639636391 -0.803137972298 -0.258819045103)
	I164 : dAve : 	(0.0276719617802 -0.0561131875497 -0.0163624617374) : omega : 	0.0654498469498 : d : 	(0.427218068558 -0.866312543941 -0.258819045103)
	I165 : dAve : 	(0.0201109836069 -0.0592450472539 -0.0163624617374) : omega : 	0.0654498469498 : d : 	(0.310486681125 -0.914664267771 -0.258819045103)
	I166 : dAve : 	(0.0122059009283 -0.0613632077737 -0.0163624617374) : omega : 	0.0654498469498 : d : 	(0.188442780494 -0.947365832386 -0.258819045103)
	I167 : dAve : 	(0.00409197190067 -0.0624314267954 -0.0163624617374) : omega : 	0.0654498469498 : d : 	(0.0631745716435 -0.963857704949 -0.258819045103)
	I168 : dAve : 	(-0.00409197190067 -0.0624314267954 -0.0163624617374) : omega : 	0.0654498469498 : d : 	(-0.0631745716435 -0.963857704949 -0.258819045103)
	I169 : dAve : 	(-0.0122059009283 -0.0613632077737 -0.0163624617374) : omega : 	0.0654498469498 : d : 	(-0.188442780494 -0.947365832386 -0.258819045103)
	I170 : dAve : 	(-0.0201109836069 -0.0592450472539 -0.0163624617374) : omega : 	0.0654498469498 : d : 	(-0.310486681125 -0.914664267771 -0.258819045103)
	I171 : dAve : 	(-0.0276719617802 -0.0561131875497 -0.0163624617374) : omega : 	0.0654498469498 : d : 	(-0.427218068558 -0.866312543941 -0.258819045103)
	I172 : dAve : 	(-0.0347594650153 -0.052021215649 -0.0163624617374) : omega : 	0.0654498469498 : d : 	(-0.536639636391 -0.803137972298 -0.258819045103)
	I173 : dAve : 	(-0.0412522241668 -0.0470391463256 -0.0163624617374) : omega : 	0.0654498469498 : d : 	(-0.636879151261 -0.726221487276 -0.258819045103)
	I174 : dAve : 	(-0.0470391463256 -0.0412522241668 -0.0163624617374) : omega : 	0.0654498469498 : d : 	(-0.726221487276 -0.636879151261 -0.258819045103)
	I175 : dAve : 	(-0.052021215649 -0.0347594650153 -0.0163624617374) : omega : 	0.0654498469498 : d : 	(-0.803137972298 -0.536639636391 -0.258819045103)
	I176 : dAve : 	(-0.0561131875497 -0.0276719617802 -0.0163624617374) : omega : 	0.0654498469498 : d : 	(-0.866312543941 -0.427218068558 -0.258819045103)
	I177 : dAve : 	(-0.0592450472539 -0.0201109836069 -0.0163624617374) : omega : 	0.0654498469498 : d : 	(-0.914664267771 -0.310486681125 -0.258819045103)
	I178 : dAve : 	(-0.0613632077737 -0.0122059009283 -0.0163624617374) : omega : 	0.0654498469498 : d : 	(-0.947365832386 -0.188442780494 -0.258819045103)
	I179 : dAve : 	(-0.0624314267954 -0.00409197190067 -0.0163624617374) : omega : 	0.0654498469498 : d : 	(-0.963857704949 -0.0631745716435 -0.258819045103)
	I180 : dAve : 	(-0.0624314267954 0.00409197190067 -0.0163624617374) : omega : 	0.0654498469498 : d : 	(-0.963857704949 0.0631745716435 -0.258819045103)
	I181 : dAve : 	(-0.0613632077737 0.0122059009283 -0.0163624617374) : omega : 	0.0654498469498 : d : 	(-0.947365832386 0.188442780494 -0.258819045103)
	I182 : dAve : 	(-0.0592450472539 0.0201109836069 -0.0163624617374) : omega : 	0.0654498469498 : d : 	(-0.914664267771 0.310486681125 -0.258819045103)
	I183 : dAve : 	(-0.0561131875497 0.0276719617802 -0.0163624617374) : omega : 	0.0654498469498 : d : 	(-0.866312543941 0.427218068558 -0.258819045103)
	I184 : dAve : 	(-0.052021215649 0.0347594650153 -0.0163624617374) : omega : 	0.0654498469498 : d : 	(-0.803137972298 0.536639636391 -0.258819045103)
	I185 : dAve : 	(-0.0470391463256 0.0412522241668 -0.0163624617374) : omega : 	0.0654498469498 : d : 	(-0.726221487276 0.636879151261 -0.258819045103)
	I186 : dAve : 	(-0.0412522241668 0.0470391463256 -0.0163624617374) : omega : 	0.0654498469498 : d : 	(-0.636879151261 0.726221487276 -0.258819045103)
	I187 : dAve : 	(-0.0347594650153 0.052021215649 -0.0163624617374) : omega : 	0.0654498469498 : d : 	(-0.536639636391 0.803137972298 -0.258819045103)
	I188 : dAve : 	(-0.0276719617802 0.0561131875497 -0.0163624617374) : omega : 	0.0654498469498 : d : 	(-0.427218068558 0.866312543941 -0.258819045103)
	I189 : dAve : 	(-0.0201109836069 0.0592450472539 -0.0163624617374) : omega : 	0.0654498469498 : d : 	(-0.310486681125 0.914664267771 -0.258819045103)
	I190 : dAve : 	(-0.0122059009283 0.0613632077737 -0.0163624617374) : omega : 	0.0654498469498 : d : 	(-0.188442780494 0.947365832386 -0.258819045103)
	I191 : dAve : 	(-0.00409197190067 0.0624314267954 -0.0163624617374) : omega : 	0.0654498469498 : d : 	(-0.0631745716435 0.963857704949 -0.258819045103)
	I192 : dAve : 	(0.00223973005487 0.034171677215 -0.0327249234749) : omega : 	0.0479126133149 : d : 	(0.0462469961895 0.70559281129 -0.707106781187)
	I193 : dAve : 	(0.00668086776241 0.0335869903436 -0.0327249234749) : omega : 	0.0479126133149 : d : 	(0.137949689641 0.693519922661 -0.707106781187)
	I194 : dAve : 	(0.0110076939702 0.0324276207555 -0.0327249234749) : omega : 	0.0479126133149 : d : 	(0.227292025657 0.669580715876 -0.707106781187)
	I195 : dAve : 	(0.0151461754823 0.0307134055855 -0.0327249234749) : omega : 	0.0479126133149 : d : 	(0.312745332096 0.634184797399 -0.707106781187)
	I196 : dAve : 	(0.0190255017326 0.0284736755306 -0.0327249234749) : omega : 	0.0479126133149 : d : 	(0.392847479194 0.58793780121 -0.707106781187)
	I197 : dAve : 	(0.0225792963734 0.025746752993 -0.0327249234749) : omega : 	0.0479126133149 : d : 	(0.466227897004 0.531631026234 -0.707106781187)
	I198 : dAve : 	(0.025746752993 0.0225792963734 -0.0327249234749) : omega : 	0.0479126133149 : d : 	(0.531631026234 0.466227897004 -0.707106781187)
	I199 : dAve : 	(0.0284736755306 0.0190255017326 -0.0327249234749) : omega : 	0.0479126133149 : d : 	(0.58793780121 0.392847479194 -0.707106781187)
	I200 : dAve : 	(0.0307134055855 0.0151461754823 -0.0327249234749) : omega : 	0.0479126133149 : d : 	(0.634184797399 0.312745332096 -0.707106781187)
	I201 : dAve : 	(0.0324276207555 0.0110076939702 -0.0327249234749) : omega : 	0.0479126133149 : d : 	(0.669580715876 0.227292025657 -0.707106781187)
	I202 : dAve : 	(0.0335869903436 0.00668086776241 -0.0327249234749) : omega : 	0.0479126133149 : d : 	(0.693519922661 0.137949689641 -0.707106781187)
	I203 : dAve : 	(0.034171677215 0.00223973005487 -0.0327249234749) : omega : 	0.0479126133149 : d : 	(0.70559281129 0.0462469961895 -0.707106781187)
	I204 : dAve : 	(0.034171677215 -0.00223973005487 -0.0327249234749) : omega : 	0.0479126133149 : d : 	(0.70559281129 -0.0462469961895 -0.707106781187)
	I205 : dAve : 	(0.0335869903436 -0.00668086776241 -0.0327249234749) : omega : 	0.0479126133149 : d : 	(0.693519922661 -0.137949689641 -0.707106781187)
	I206 : dAve : 	(0.0324276207555 -0.0110076939702 -0.0327249234749) : omega : 	0.0479126133149 : d : 	(0.669580715876 -0.227292025657 -0.707106781187)
	I207 : dAve : 	(0.0307134055855 -0.0151461754823 -0.0327249234749) : omega : 	0.0479126133149 : d : 	(0.634184797399 -0.312745332096 -0.707106781187)
	I208 : dAve : 	(0.0284736755306 -0.0190255017326 -0.0327249234749) : omega : 	0.0479126133149 : d : 	(0.58793780121 -0.392847479194 -0.707106781187)
	I209 : dAve : 	(0.025746752993 -0.0225792963734 -0.0327249234749) : omega : 	0.0479126133149 : d : 	(0.531631026234 -0.466227897004 -0.707106781187)
	I210 : dAve : 	(0.0225792963734 -0.025746752993 -0.0327249234749) : omega : 	0.0479126133149 : d : 	(0.466227897004 -0.531631026234 -0.707106781187)
	I211 : dAve : 	(0.0190255017326 -0.0284736755306 -0.0327249234749) : omega : 	0.0479126133149 : d : 	(0.392847479194 -0.58793780121 -0.707106781187)
	I212 : dAve : 	(0.0151461754823 -0.0307134055855 -0.0327249234749) : omega : 	0.0479126133149 : d : 	(0.312745332096 -0.634184797399 -0.707106781187)
	I213 : dAve : 	(0.0110076939702 -0.0324276207555 -0.0327249234749) : omega : 	0.0479126133149 : d : 	(0.227292025657 -0.669580715876 -0.707106781187)
	I214 : dAve : 	(0.00668086776241 -0.0335869903436 -0.0327249234749) : omega : 	0.0479126133149 : d : 	(0.137949689641 -0.693519922661 -0.707106781187)
	I215 : dAve : 	(0.00223973005487 -0.034171677215 -0.0327249234749) : omega : 	0.0479126133149 : d : 	(0.0462469961895 -0.70559281129 -0.707106781187)
	I216 : dAve : 	(-0.00223973005487 -0.034171677215 -0.0327249234749) : omega : 	0.0479126133149 : d : 	(-0.0462469961895 -0.70559281129 -0.707106781187)
	I217 : dAve : 	(-0.00668086776241 -0.0335869903436 -0.0327249234749) : omega : 	0.0479126133149 : d : 	(-0.137949689641 -0.693519922661 -0.707106781187)
	I218 : dAve : 	(-0.0110076939702 -0.0324276207555 -0.0327249234749) : omega : 	0.0479126133149 : d : 	(-0.227292025657 -0.669580715876 -0.707106781187)
	I219 : dAve : 	(-0.0151461754823 -0.0307134055855 -0.0327249234749) : omega : 	0.0479126133149 : d : 	(-0.312745332096 -0.634184797399 -0.707106781187)
	I220 : dAve : 	(-0.0190255017326 -0.0284736755306 -0.0327249234749) : omega : 	0.0479126133149 : d : 	(-0.392847479194 -0.58793780121 -0.707106781187)
	I221 : dAve : 	(-0.0225792963734 -0.025746752993 -0.0327249234749) : omega : 	0.0479126133149 : d : 	(-0.466227897004 -0.531631026234 -0.707106781187)
	I222 : dAve : 	(-0.025746752993 -0.0225792963734 -0.0327249234749) : omega : 	0.0479126133149 : d : 	(-0.531631026234 -0.466227897004 -0.707106781187)
	I223 : dAve : 	(-0.0284736755306 -0.0190255017326 -0.0327249234749) : omega : 	0.0479126133149 : d : 	(-0.58793780121 -0.392847479194 -0.707106781187)
	I224 : dAve : 	(-0.0307134055855 -0.0151461754823 -0.0327249234749) : omega : 	0.0479126133149 : d : 	(-0.634184797399 -0.312745332096 -0.707106781187)
	I225 : dAve : 	(-0.0324276207555 -0.0110076939702 -0.0327249234749) : omega : 	0.0479126133149 : d : 	(-0.669580715876 -0.227292025657 -0.707106781187)
	I226 : dAve : 	(-0.0335869903436 -0.00668086776241 -0.0327249234749) : omega : 	0.0479126133149 : d : 	(-0.693519922661 -0.137949689641 -0.707106781187)
	I227 : dAve : 	(-0.034171677215 -0.00223973005487 -0.0327249234749) : omega : 	0.0479126133149 : d : 	(-0.70559281129 -0.0462469961895 -0.707106781187)
	I228 : dAve : 	(-0.034171677215 0.00223973005487 -0.0327249234749) : omega : 	0.0479126133149 : d : 	(-0.70559281129 0.0462469961895 -0.707106781187)
	I229 : dAve : 	(-0.0335869903436 0.00668086776241 -0.0327249234749) : omega : 	0.0479126133149 : d : 	(-0.693519922661 0.137949689641 -0.707106781187)
	I230 : dAve : 	(-0.0324276207555 0.0110076939702 -0.0327249234749) : omega : 	0.0479126133149 : d : 	(-0.669580715876 0.227292025657 -0.707106781187)
	I231 : dAve : 	(-0.0307134055855 0.0151461754823 -0.0327249234749) : omega : 	0.0479126133149 : d : 	(-0.634184797399 0.312745332096 -0.707106781187)
	I232 : dAve : 	(-0.0284736755306 0.0190255017326 -0.0327249234749) : omega : 	0.0479126133149 : d : 	(-0.58793780121 0.392847479194 -0.707106781187)
	I233 : dAve : 	(-0.025746752993 0.0225792963734 -0.0327249234749) : omega : 	0.0479126133149 : d : 	(-0.531631026234 0.466227897004 -0.707106781187)
	I234 : dAve : 	(-0.0225792963734 0.025746752993 -0.0327249234749) : omega : 	0.0479126133149 : d : 	(-0.466227897004 0.531631026234 -0.707106781187)
	I235 : dAve : 	(-0.0190255017326 0.0284736755306 -0.0327249234749) : omega : 	0.0479126133149 : d : 	(-0.392847479194 0.58793780121 -0.707106781187)
	I236 : dAve : 	(-0.0151461754823 0.0307134055855 -0.0327249234749) : omega : 	0.0479126133149 : d : 	(-0.312745332096 0.634184797399 -0.707106781187)
	I237 : dAve : 	(-0.0110076939702 0.0324276207555 -0.0327249234749) : omega : 	0.0479126133149 : d : 	(-0.227292025657 0.669580715876 -0.707106781187)
	I238 : dAve : 	(-0.00668086776241 0.0335869903436 -0.0327249234749) : omega : 	0.0479126133149 : d : 	(-0.137949689641 0.693519922661 -0.707106781187)
	I239 : dAve : 	(-0.00223973005487 0.034171677215 -0.0327249234749) : omega : 	0.0479126133149 : d : 	(-0.0462469961895 0.70559281129 -0.707106781187)
	I240 : dAve : 	(0.000387488209079 0.00591192763451 -0.0163624617374) : omega : 	0.0175372336349 : d : 	(0.0169275754541 0.25826489366 -0.965925826289)
	I241 : dAve : 	(0.00115583459655 0.00581077291359 -0.0163624617374) : omega : 	0.0175372336349 : d : 	(0.050493090853 0.253845909725 -0.965925826289)
	I242 : dAve : 	(0.00190440433361 0.00561019425706 -0.0163624617374) : omega : 	0.0175372336349 : d : 	(0.083194655468 0.245083551895 -0.965925826289)
	I243 : dAve : 	(0.00262038918453 0.00531362362136 -0.0163624617374) : omega : 	0.0175372336349 : d : 	(0.114472736462 0.232127746542 -0.965925826289)
	I244 : dAve : 	(0.00329153844998 0.00492613541228 -0.0163624617374) : omega : 	0.0175372336349 : d : 	(0.143792157198 0.215200171088 -0.965925826289)
	I245 : dAve : 	(0.00390636857998 0.00445435966052 -0.0163624617374) : omega : 	0.0175372336349 : d : 	(0.170651254257 0.194590461042 -0.965925826289)
	I246 : dAve : 	(0.00445435966052 0.00390636857998 -0.0163624617374) : omega : 	0.0175372336349 : d : 	(0.194590461042 0.170651254257 -0.965925826289)
	I247 : dAve : 	(0.00492613541228 0.00329153844998 -0.0163624617374) : omega : 	0.0175372336349 : d : 	(0.215200171088 0.143792157198 -0.965925826289)
	I248 : dAve : 	(0.00531362362136 0.00262038918453 -0.0163624617374) : omega : 	0.0175372336349 : d : 	(0.232127746542 0.114472736462 -0.965925826289)
	I249 : dAve : 	(0.00561019425706 0.00190440433361 -0.0163624617374) : omega : 	0.0175372336349 : d : 	(0.245083551895 0.083194655468 -0.965925826289)
	I250 : dAve : 	(0.00581077291359 0.00115583459655 -0.0163624617374) : omega : 	0.0175372336349 : d : 	(0.253845909725 0.050493090853 -0.965925826289)
	I251 : dAve : 	(0.00591192763451 0.000387488209079 -0.0163624617374) : omega : 	0.0175372336349 : d : 	(0.25826489366 0.0169275754541 -0.965925826289)
	I252 : dAve : 	(0.00591192763451 -0.000387488209079 -0.0163624617374) : omega : 	0.0175372336349 : d : 	(0.25826489366 -0.0169275754541 -0.965925826289)
	I253 : dAve : 	(0.00581077291359 -0.00115583459655 -0.0163624617374) : omega : 	0.0175372336349 : d : 	(0.253845909725 -0.050493090853 -0.965925826289)
	I254 : dAve : 	(0.00561019425706 -0.00190440433361 -0.0163624617374) : omega : 	0.0175372336349 : d : 	(0.245083551895 -0.083194655468 -0.965925826289)
	I255 : dAve : 	(0.00531362362136 -0.00262038918453 -0.0163624617374) : omega : 	0.0175372336349 : d : 	(0.232127746542 -0.114472736462 -0.965925826289)
	I256 : dAve : 	(0.00492613541228 -0.00329153844998 -0.0163624617374) : omega : 	0.0175372336349 : d : 	(0.215200171088 -0.143792157198 -0.965925826289)
	I257 : dAve : 	(0.00445435966052 -0.00390636857998 -0.0163624617374) : omega : 	0.0175372336349 : d : 	(0.194590461042 -0.170651254257 -0.965925826289)
	I258 : dAve : 	(0.00390636857998 -0.00445435966052 -0.0163624617374) : omega : 	0.0175372336349 : d : 	(0.170651254257 -0.194590461042 -0.965925826289)
	I259 : dAve : 	(0.00329153844998 -0.00492613541228 -0.0163624617374) : omega : 	0.0175372336349 : d : 	(0.143792157198 -0.215200171088 -0.965925826289)
	I260 : dAve : 	(0.00262038918453 -0.00531362362136 -0.0163624617374) : omega : 	0.0175372336349 : d : 	(0.114472736462 -0.232127746542 -0.965925826289)
	I261 : dAve : 	(0.00190440433361 -0.00561019425706 -0.0163624617374) : omega : 	0.0175372336349 : d : 	(0.083194655468 -0.245083551895 -0.965925826289)
	I262 : dAve : 	(0.00115583459655 -0.00581077291359 -0.0163624617374) : omega : 	0.0175372336349 : d : 	(0.050493090853 -0.253845909725 -0.965925826289)
	I263 : dAve : 	(0.000387488209079 -0.00591192763451 -0.0163624617374) : omega : 	0.0175372336349 : d : 	(0.0169275754541 -0.25826489366 -0.965925826289)
	I264 : dAve : 	(-0.000387488209079 -0.00591192763451 -0.0163624617374) : omega : 	0.0175372336349 : d : 	(-0.0169275754541 -0.25826489366 -0.965925826289)
	I265 : dAve : 	(-0.00115583459655 -0.00581077291359 -0.0163624617374) : omega : 	0.0175372336349 : d : 	(-0.050493090853 -0.253845909725 -0.965925826289)
	I266 : dAve : 	(-0.00190440433361 -0.00561019425706 -0.0163624617374) : omega : 	0.0175372336349 : d : 	(-0.083194655468 -0.245083551895 -0.965925826289)
	I267 : dAve : 	(-0.00262038918453 -0.00531362362136 -0.0163624617374) : omega : 	0.0175372336349 : d : 	(-0.114472736462 -0.232127746542 -0.965925826289)
	I268 : dAve : 	(-0.00329153844998 -0.00492613541228 -0.0163624617374) : omega : 	0.0175372336349 : d : 	(-0.143792157198 -0.215200171088 -0.965925826289)
	I269 : dAve : 	(-0.00390636857998 -0.00445435966052 -0.0163624617374) : omega : 	0.0175372336349 : d : 	(-0.170651254257 -0.194590461042 -0.965925826289)
	I270 : dAve : 	(-0.00445435966052 -0.00390636857998 -0.0163624617374) : omega : 	0.0175372336349 : d : 	(-0.194590461042 -0.170651254257 -0.965925826289)
	I271 : dAve : 	(-0.00492613541228 -0.00329153844998 -0.0163624617374) : omega : 	0.0175372336349 : d : 	(-0.215200171088 -0.143792157198 -0.965925826289)
	I272 : dAve : 	(-0.00531362362136 -0.00262038918453 -0.0163624617374) : omega : 	0.0175372336349 : d : 	(-0.232127746542 -0.114472736462 -0.965925826289)
	I273 : dAve : 	(-0.00561019425706 -0.00190440433361 -0.0163624617374) : omega : 	0.0175372336349 : d : 	(-0.245083551895 -0.083194655468 -0.965925826289)
	I274 : dAve : 	(-0.00581077291359 -0.00115583459655 -0.0163624617374) : omega : 	0.0175372336349 : d : 	(-0.253845909725 -0.050493090853 -0.965925826289)
	I275 : dAve : 	(-0.00591192763451 -0.000387488209079 -0.0163624617374) : omega : 	0.0175372336349 : d : 	(-0.25826489366 -0.0169275754541 -0.965925826289)
	I276 : dAve : 	(-0.00591192763451 0.000387488209079 -0.0163624617374) : omega : 	0.0175372336349 : d : 	(-0.25826489366 0.0169275754541 -0.965925826289)
	I277 : dAve : 	(-0.00581077291359 0.00115583459655 -0.0163624617374) : omega : 	0.0175372336349 : d : 	(-0.253845909725 0.050493090853 -0.965925826289)
	I278 : dAve : 	(-0.00561019425706 0.00190440433361 -0.0163624617374) : omega : 	0.0175372336349 : d : 	(-0.245083551895 0.083194655468 -0.965925826289)
	I279 : dAve : 	(-0.00531362362136 0.00262038918453 -0.0163624617374) : omega : 	0.0175372336349 : d : 	(-0.232127746542 0.114472736462 -0.965925826289)
	I280 : dAve : 	(-0.00492613541228 0.00329153844998 -0.0163624617374) : omega : 	0.0175372336349 : d : 	(-0.215200171088 0.143792157198 -0.965925826289)
	I281 : dAve : 	(-0.00445435966052 0.00390636857998 -0.0163624617374) : omega : 	0.0175372336349 : d : 	(-0.194590461042 0.170651254257 -0.965925826289)
	I282 : dAve : 	(-0.00390636857998 0.00445435966052 -0.0163624617374) : omega : 	0.0175372336349 : d : 	(-0.170651254257 0.194590461042 -0.965925826289)
	I283 : dAve : 	(-0.00329153844998 0.00492613541228 -0.0163624617374) : omega : 	0.0175372336349 : d : 	(-0.143792157198 0.215200171088 -0.965925826289)
	I284 : dAve : 	(-0.00262038918453 0.00531362362136 -0.0163624617374) : omega : 	0.0175372336349 : d : 	(-0.114472736462 0.232127746542 -0.965925826289)
	I285 : dAve : 	(-0.00190440433361 0.00561019425706 -0.0163624617374) : omega : 	0.0175372336349 : d : 	(-0.083194655468 0.245083551895 -0.965925826289)
	I286 : dAve : 	(-0.00115583459655 0.00581077291359 -0.0163624617374) : omega : 	0.0175372336349 : d : 	(-0.050493090853 0.253845909725 -0.965925826289)
	I287 : dAve : 	(-0.000387488209079 0.00591192763451 -0.0163624617374) : omega : 	0.0175372336349 : d : 	(-0.0169275754541 0.25826489366 -0.965925826289)
Total omega : 12.5663706144

Courant Number mean: 0 max: 0

Starting time loop

Sampled set:
    data -> csv

Sampled set:
    data -> csv

Sampled surface:
    yNormal -> ensight
        sampledCuttingPlane: yNormal : plane:(0 1 0) (0 0 0) offsets:(0)

Sampled surface:
    zNormal -> ensight
        sampledCuttingPlane: zNormal : plane:(0 0 1) (0 0 0) offsets:(0)

Sampled surface:
    patchAll -> ensight
        sampledPatch: patchAll : patches:(".*WW.*")

deltaT = 1
Time = 1

PIMPLE: iteration 1
Radiation solver iter: 0
DILUPBiCGStab:  Solving for ILambda_0_0, Initial residual = 1, Final residual = 2.40172136007e-73, No Iterations 3
DILUPBiCGStab:  Solving for ILambda_1_0, Initial residual = 1, Final residual = 8.24219068387e-74, No Iterations 3
DILUPBiCGStab:  Solving for ILambda_2_0, Initial residual = 1, Final residual = 2.97619534799e-74, No Iterations 3
DILUPBiCGStab:  Solving for ILambda_3_0, Initial residual = 1, Final residual = 8.78239504668e-74, No Iterations 3
DILUPBiCGStab:  Solving for ILambda_4_0, Initial residual = 1, Final residual = 1.84367059464e-74, No Iterations 3
DILUPBiCGStab:  Solving for ILambda_5_0, Initial residual = 1, Final residual = 1.92638578229e-74, No Iterations 3
DILUPBiCGStab:  Solving for ILambda_6_0, Initial residual = 1, Final residual = 9.11635478634e-74, No Iterations 3
DILUPBiCGStab:  Solving for ILambda_7_0, Initial residual = 1, Final residual = 4.19325658219e-74, No Iterations 3
DILUPBiCGStab:  Solving for ILambda_8_0, Initial residual = 1, Final residual = 5.65144807944e-73, No Iterations 3
DILUPBiCGStab:  Solving for ILambda_9_0, Initial residual = 1, Final residual = 2.03133759665e-73, No Iterations 3
DILUPBiCGStab:  Solving for ILambda_10_0, Initial residual = 1, Final residual = 1.85642484608e-73, No Iterations 3
DILUPBiCGStab:  Solving for ILambda_11_0, Initial residual = 1, Final residual = 3.45118128329e-74, No Iterations 3
DILUPBiCGStab:  Solving for ILambda_12_0, Initial residual = 1, Final residual = 4.09872374668e-61, No Iterations 63
DILUPBiCGStab:  Solving for ILambda_13_0, Initial residual = 1, Final residual = 7.39447083199e-61, No Iterations 103
DILUPBiCGStab:  Solving for ILambda_14_0, Initial residual = 1, Final residual = 4.9249262179e-61, No Iterations 130
DILUPBiCGStab:  Solving for ILambda_15_0, Initial residual = 1, Final residual = 6.81199088862e-61, No Iterations 146
DILUPBiCGStab:  Solving for ILambda_16_0, Initial residual = 1, Final residual = 8.70940214185e-61, No Iterations 150
DILUPBiCGStab:  Solving for ILambda_17_0, Initial residual = 1, Final residual = 7.62337927502e-61, No Iterations 153
DILUPBiCGStab:  Solving for ILambda_18_0, Initial residual = 1, Final residual = 7.59745544772e-61, No Iterations 154
DILUPBiCGStab:  Solving for ILambda_19_0, Initial residual = 1, Final residual = 8.67354315566e-61, No Iterations 149
DILUPBiCGStab:  Solving for ILambda_20_0, Initial residual = 1, Final residual = 6.20838657466e-61, No Iterations 145
DILUPBiCGStab:  Solving for ILambda_21_0, Initial residual = 1, Final residual = 8.26542763986e-61, No Iterations 132
DILUPBiCGStab:  Solving for ILambda_22_0, Initial residual = 1, Final residual = 7.348305089e-61, No Iterations 102
DILUPBiCGStab:  Solving for ILambda_23_0, Initial residual = 1, Final residual = 9.68361322561e-61, No Iterations 63
DILUPBiCGStab:  Solving for ILambda_24_0, Initial residual = 1, Final residual = 7.73912973874e-61, No Iterations 41
DILUPBiCGStab:  Solving for ILambda_25_0, Initial residual = 1, Final residual = 2.20074126961e-61, No Iterations 43
DILUPBiCGStab:  Solving for ILambda_26_0, Initial residual = 1, Final residual = 9.59002488469e-61, No Iterations 43
DILUPBiCGStab:  Solving for ILambda_27_0, Initial residual = 1, Final residual = 2.31127345357e-61, No Iterations 43
DILUPBiCGStab:  Solving for ILambda_28_0, Initial residual = 1, Final residual = 1.4286421642e-61, No Iterations 43
DILUPBiCGStab:  Solving for ILambda_29_0, Initial residual = 1, Final residual = 5.19641335312e-61, No Iterations 43
DILUPBiCGStab:  Solving for ILambda_30_0, Initial residual = 1, Final residual = 7.62149548168e-61, No Iterations 43
DILUPBiCGStab:  Solving for ILambda_31_0, Initial residual = 1, Final residual = 4.33597130703e-61, No Iterations 44
DILUPBiCGStab:  Solving for ILambda_32_0, Initial residual = 1, Final residual = 9.33540876629e-62, No Iterations 44
DILUPBiCGStab:  Solving for ILambda_33_0, Initial residual = 1, Final residual = 7.60476602719e-61, No Iterations 42
DILUPBiCGStab:  Solving for ILambda_34_0, Initial residual = 1, Final residual = 4.7496267157e-61, No Iterations 42
DILUPBiCGStab:  Solving for ILambda_35_0, Initial residual = 1, Final residual = 9.56615133237e-61, No Iterations 41
DILUPBiCGStab:  Solving for ILambda_36_0, Initial residual = 1, Final residual = 6.93522234695e-61, No Iterations 63
DILUPBiCGStab:  Solving for ILambda_37_0, Initial residual = 1, Final residual = 9.15404216294e-61, No Iterations 103
DILUPBiCGStab:  Solving for ILambda_38_0, Initial residual = 1, Final residual = 3.33933881114e-61, No Iterations 132
DILUPBiCGStab:  Solving for ILambda_39_0, Initial residual = 1, Final residual = 9.94283840564e-61, No Iterations 145
DILUPBiCGStab:  Solving for ILambda_40_0, Initial residual = 1, Final residual = 7.1801836737e-61, No Iterations 152
DILUPBiCGStab:  Solving for ILambda_41_0, Initial residual = 1, Final residual = 3.52907075308e-61, No Iterations 154
DILUPBiCGStab:  Solving for ILambda_42_0, Initial residual = 1, Final residual = 4.21509689311e-61, No Iterations 153
DILUPBiCGStab:  Solving for ILambda_43_0, Initial residual = 1, Final residual = 8.98235028159e-61, No Iterations 149
DILUPBiCGStab:  Solving for ILambda_44_0, Initial residual = 1, Final residual = 7.89002781258e-61, No Iterations 144
DILUPBiCGStab:  Solving for ILambda_45_0, Initial residual = 1, Final residual = 1.03943992791e-61, No Iterations 132
DILUPBiCGStab:  Solving for ILambda_46_0, Initial residual = 1, Final residual = 4.87649282516e-61, No Iterations 104
DILUPBiCGStab:  Solving for ILambda_47_0, Initial residual = 1, Final residual = 8.62565200491e-61, No Iterations 62
DILUPBiCGStab:  Solving for ILambda_48_0, Initial residual = 1, Final residual = 2.71138803969e-73, No Iterations 3
DILUPBiCGStab:  Solving for ILambda_49_0, Initial residual = 1, Final residual = 9.77347321766e-73, No Iterations 3
DILUPBiCGStab:  Solving for ILambda_50_0, Initial residual = 1, Final residual = 1.93435547248e-72, No Iterations 3
DILUPBiCGStab:  Solving for ILambda_51_0, Initial residual = 1, Final residual = 1.20708583311e-72, No Iterations 3
DILUPBiCGStab:  Solving for ILambda_52_0, Initial residual = 1, Final residual = 1.16554821954e-72, No Iterations 3
DILUPBiCGStab:  Solving for ILambda_53_0, Initial residual = 1, Final residual = 1.19261180834e-72, No Iterations 3
DILUPBiCGStab:  Solving for ILambda_54_0, Initial residual = 1, Final residual = 1.7026663654e-72, No Iterations 3
DILUPBiCGStab:  Solving for ILambda_55_0, Initial residual = 1, Final residual = 1.03069950683e-72, No Iterations 3
DILUPBiCGStab:  Solving for ILambda_56_0, Initial residual = 1, Final residual = 4.66189200425e-73, No Iterations 3
DILUPBiCGStab:  Solving for ILambda_57_0, Initial residual = 1, Final residual = 4.00978114901e-73, No Iterations 3
DILUPBiCGStab:  Solving for ILambda_58_0, Initial residual = 1, Final residual = 5.0455586474e-73, No Iterations 3
DILUPBiCGStab:  Solving for ILambda_59_0, Initial residual = 1, Final residual = 2.9619317218e-72, No Iterations 3
DILUPBiCGStab:  Solving for ILambda_60_0, Initial residual = 1, Final residual = 9.44639714675e-61, No Iterations 66
DILUPBiCGStab:  Solving for ILambda_61_0, Initial residual = 1, Final residual = 4.27081545141e-61, No Iterations 108
DILUPBiCGStab:  Solving for ILambda_62_0, Initial residual = 1, Final residual = 3.68134112485e-61, No Iterations 134
DILUPBiCGStab:  Solving for ILambda_63_0, Initial residual = 1, Final residual = 1.96287461305e-61, No Iterations 152
DILUPBiCGStab:  Solving for ILambda_64_0, Initial residual = 1, Final residual = 9.43852614362e-61, No Iterations 165
DILUPBiCGStab:  Solving for ILambda_65_0, Initial residual = 1, Final residual = 6.80256725309e-61, No Iterations 170
DILUPBiCGStab:  Solving for ILambda_66_0, Initial residual = 1, Final residual = 4.19744533834e-61, No Iterations 169
DILUPBiCGStab:  Solving for ILambda_67_0, Initial residual = 1, Final residual = 9.93231067475e-61, No Iterations 166
DILUPBiCGStab:  Solving for ILambda_68_0, Initial residual = 1, Final residual = 6.87644642735e-61, No Iterations 154
DILUPBiCGStab:  Solving for ILambda_69_0, Initial residual = 1, Final residual = 2.94059448633e-61, No Iterations 132
DILUPBiCGStab:  Solving for ILambda_70_0, Initial residual = 1, Final residual = 5.50995927084e-61, No Iterations 103
DILUPBiCGStab:  Solving for ILambda_71_0, Initial residual = 1, Final residual = 9.49597659988e-61, No Iterations 70
DILUPBiCGStab:  Solving for ILambda_72_0, Initial residual = 1, Final residual = 3.60083640147e-61, No Iterations 51
DILUPBiCGStab:  Solving for ILambda_73_0, Initial residual = 1, Final residual = 9.95620360936e-61, No Iterations 56
DILUPBiCGStab:  Solving for ILambda_74_0, Initial residual = 1, Final residual = 1.57072724964e-61, No Iterations 57
DILUPBiCGStab:  Solving for ILambda_75_0, Initial residual = 1, Final residual = 1.39877883895e-61, No Iterations 58
DILUPBiCGStab:  Solving for ILambda_76_0, Initial residual = 1, Final residual = 4.13669519132e-61, No Iterations 60
DILUPBiCGStab:  Solving for ILambda_77_0, Initial residual = 1, Final residual = 5.1009284833e-61, No Iterations 59
DILUPBiCGStab:  Solving for ILambda_78_0, Initial residual = 1, Final residual = 3.02981804884e-61, No Iterations 60
DILUPBiCGStab:  Solving for ILambda_79_0, Initial residual = 1, Final residual = 9.14189176767e-62, No Iterations 60
DILUPBiCGStab:  Solving for ILambda_80_0, Initial residual = 1, Final residual = 7.08806992912e-61, No Iterations 58
DILUPBiCGStab:  Solving for ILambda_81_0, Initial residual = 1, Final residual = 3.89345363745e-61, No Iterations 58
DILUPBiCGStab:  Solving for ILambda_82_0, Initial residual = 1, Final residual = 1.94683811211e-61, No Iterations 55
DILUPBiCGStab:  Solving for ILambda_83_0, Initial residual = 1, Final residual = 3.28325735995e-61, No Iterations 52
DILUPBiCGStab:  Solving for ILambda_84_0, Initial residual = 1, Final residual = 5.44282429967e-62, No Iterations 72
DILUPBiCGStab:  Solving for ILambda_85_0, Initial residual = 1, Final residual = 2.22583268366e-61, No Iterations 103
DILUPBiCGStab:  Solving for ILambda_86_0, Initial residual = 1, Final residual = 1.58634632298e-61, No Iterations 132
DILUPBiCGStab:  Solving for ILambda_87_0, Initial residual = 1, Final residual = 3.06211737e-61, No Iterations 153
DILUPBiCGStab:  Solving for ILambda_88_0, Initial residual = 1, Final residual = 9.29105263143e-61, No Iterations 164
DILUPBiCGStab:  Solving for ILambda_89_0, Initial residual = 1, Final residual = 7.36208886726e-61, No Iterations 171
DILUPBiCGStab:  Solving for ILambda_90_0, Initial residual = 1, Final residual = 7.47090918034e-61, No Iterations 174
DILUPBiCGStab:  Solving for ILambda_91_0, Initial residual = 1, Final residual = 4.60055582479e-61, No Iterations 165
DILUPBiCGStab:  Solving for ILambda_92_0, Initial residual = 1, Final residual = 7.35499691835e-61, No Iterations 150
DILUPBiCGStab:  Solving for ILambda_93_0, Initial residual = 1, Final residual = 3.31483083661e-61, No Iterations 134
DILUPBiCGStab:  Solving for ILambda_94_0, Initial residual = 1, Final residual = 4.01374046424e-61, No Iterations 108
DILUPBiCGStab:  Solving for ILambda_95_0, Initial residual = 1, Final residual = 5.15018379088e-61, No Iterations 66
DILUPBiCGStab:  Solving for ILambda_96_0, Initial residual = 1, Final residual = 1.31873863883e-72, No Iterations 3
DILUPBiCGStab:  Solving for ILambda_97_0, Initial residual = 1, Final residual = 2.56655220126e-72, No Iterations 3
DILUPBiCGStab:  Solving for ILambda_98_0, Initial residual = 1, Final residual = 4.79110675929e-73, No Iterations 3
DILUPBiCGStab:  Solving for ILambda_99_0, Initial residual = 1, Final residual = 5.83671249082e-73, No Iterations 3
DILUPBiCGStab:  Solving for ILambda_100_0, Initial residual = 1, Final residual = 1.88727244864e-72, No Iterations 3
DILUPBiCGStab:  Solving for ILambda_101_0, Initial residual = 1, Final residual = 2.7003134244e-72, No Iterations 3
DILUPBiCGStab:  Solving for ILambda_102_0, Initial residual = 1, Final residual = 1.20119806142e-72, No Iterations 3
DILUPBiCGStab:  Solving for ILambda_103_0, Initial residual = 1, Final residual = 7.51093179167e-73, No Iterations 3
DILUPBiCGStab:  Solving for ILambda_104_0, Initial residual = 1, Final residual = 9.77953086764e-73, No Iterations 3
DILUPBiCGStab:  Solving for ILambda_105_0, Initial residual = 1, Final residual = 3.78677672507e-72, No Iterations 3
DILUPBiCGStab:  Solving for ILambda_106_0, Initial residual = 1, Final residual = 3.45444683514e-71, No Iterations 3
DILUPBiCGStab:  Solving for ILambda_107_0, Initial residual = 1, Final residual = 3.01767369504e-73, No Iterations 3
DILUPBiCGStab:  Solving for ILambda_108_0, Initial residual = 1, Final residual = 2.59872925562e-61, No Iterations 70
DILUPBiCGStab:  Solving for ILambda_109_0, Initial residual = 1, Final residual = 4.03548529586e-61, No Iterations 111
DILUPBiCGStab:  Solving for ILambda_110_0, Initial residual = 1, Final residual = 4.99785286886e-61, No Iterations 135
DILUPBiCGStab:  Solving for ILambda_111_0, Initial residual = 1, Final residual = 2.29996028489e-61, No Iterations 154
DILUPBiCGStab:  Solving for ILambda_112_0, Initial residual = 1, Final residual = 9.38847323536e-61, No Iterations 163
DILUPBiCGStab:  Solving for ILambda_113_0, Initial residual = 1, Final residual = 6.56408375587e-61, No Iterations 177
DILUPBiCGStab:  Solving for ILambda_114_0, Initial residual = 1, Final residual = 2.69941607543e-61, No Iterations 177
DILUPBiCGStab:  Solving for ILambda_115_0, Initial residual = 1, Final residual = 5.65592128458e-61, No Iterations 166
DILUPBiCGStab:  Solving for ILambda_116_0, Initial residual = 1, Final residual = 4.0574300213e-61, No Iterations 151
DILUPBiCGStab:  Solving for ILambda_117_0, Initial residual = 1, Final residual = 2.31615653416e-61, No Iterations 127
DILUPBiCGStab:  Solving for ILambda_118_0, Initial residual = 1, Final residual = 8.52756517507e-61, No Iterations 110
DILUPBiCGStab:  Solving for ILambda_119_0, Initial residual = 1, Final residual = 2.50506430115e-61, No Iterations 79
DILUPBiCGStab:  Solving for ILambda_120_0, Initial residual = 1, Final residual = 7.86487636452e-61, No Iterations 61
DILUPBiCGStab:  Solving for ILambda_121_0, Initial residual = 1, Final residual = 1.03244939815e-61, No Iterations 68
DILUPBiCGStab:  Solving for ILambda_122_0, Initial residual = 1, Final residual = 2.99202463877e-61, No Iterations 70
DILUPBiCGStab:  Solving for ILambda_123_0, Initial residual = 1, Final residual = 6.09438981011e-61, No Iterations 72
DILUPBiCGStab:  Solving for ILambda_124_0, Initial residual = 1, Final residual = 2.79216453172e-61, No Iterations 74
DILUPBiCGStab:  Solving for ILambda_125_0, Initial residual = 1, Final residual = 2.82044896142e-61, No Iterations 72
DILUPBiCGStab:  Solving for ILambda_126_0, Initial residual = 1, Final residual = 1.92042218438e-61, No Iterations 75
DILUPBiCGStab:  Solving for ILambda_127_0, Initial residual = 1, Final residual = 8.23019402425e-61, No Iterations 75
DILUPBiCGStab:  Solving for ILambda_128_0, Initial residual = 1, Final residual = 6.41824533314e-61, No Iterations 70
DILUPBiCGStab:  Solving for ILambda_129_0, Initial residual = 1, Final residual = 7.04294539362e-61, No Iterations 72
DILUPBiCGStab:  Solving for ILambda_130_0, Initial residual = 1, Final residual = 4.64469442844e-61, No Iterations 67
DILUPBiCGStab:  Solving for ILambda_131_0, Initial residual = 1, Final residual = 9.06277386321e-61, No Iterations 61
DILUPBiCGStab:  Solving for ILambda_132_0, Initial residual = 1, Final residual = 2.84261401741e-61, No Iterations 79
DILUPBiCGStab:  Solving for ILambda_133_0, Initial residual = 1, Final residual = 9.06762806496e-61, No Iterations 109
DILUPBiCGStab:  Solving for ILambda_134_0, Initial residual = 1, Final residual = 6.35168211504e-61, No Iterations 127
DILUPBiCGStab:  Solving for ILambda_135_0, Initial residual = 1, Final residual = 6.57615886371e-61, No Iterations 153
DILUPBiCGStab:  Solving for ILambda_136_0, Initial residual = 1, Final residual = 9.58906839866e-61, No Iterations 165
DILUPBiCGStab:  Solving for ILambda_137_0, Initial residual = 1, Final residual = 1.66877483389e-61, No Iterations 178
DILUPBiCGStab:  Solving for ILambda_138_0, Initial residual = 1, Final residual = 4.48265482089e-61, No Iterations 176
DILUPBiCGStab:  Solving for ILambda_139_0, Initial residual = 1, Final residual = 3.36404406712e-61, No Iterations 164
DILUPBiCGStab:  Solving for ILambda_140_0, Initial residual = 1, Final residual = 3.11653924886e-61, No Iterations 154
DILUPBiCGStab:  Solving for ILambda_141_0, Initial residual = 1, Final residual = 1.94231352645e-61, No Iterations 136
DILUPBiCGStab:  Solving for ILambda_142_0, Initial residual = 1, Final residual = 2.99820431509e-61, No Iterations 109
DILUPBiCGStab:  Solving for ILambda_143_0, Initial residual = 1, Final residual = 2.30373705611e-61, No Iterations 70
DILUPBiCGStab:  Solving for ILambda_144_0, Initial residual = 1, Final residual = 4.28446543642e-61, No Iterations 60
DILUPBiCGStab:  Solving for ILambda_145_0, Initial residual = 1, Final residual = 5.35030840991e-61, No Iterations 61
DILUPBiCGStab:  Solving for ILambda_146_0, Initial residual = 1, Final residual = 4.56601704054e-61, No Iterations 62
DILUPBiCGStab:  Solving for ILambda_147_0, Initial residual = 1, Final residual = 7.10693979708e-62, No Iterations 65
DILUPBiCGStab:  Solving for ILambda_148_0, Initial residual = 1, Final residual = 8.50848293624e-62, No Iterations 64
DILUPBiCGStab:  Solving for ILambda_149_0, Initial residual = 1, Final residual = 1.36488484582e-61, No Iterations 65
DILUPBiCGStab:  Solving for ILambda_150_0, Initial residual = 1, Final residual = 3.76509740359e-61, No Iterations 65
DILUPBiCGStab:  Solving for ILambda_151_0, Initial residual = 1, Final residual = 3.19764057467e-61, No Iterations 64
DILUPBiCGStab:  Solving for ILambda_152_0, Initial residual = 1, Final residual = 5.48331751814e-61, No Iterations 65
DILUPBiCGStab:  Solving for ILambda_153_0, Initial residual = 1, Final residual = 7.03460824759e-61, No Iterations 62
DILUPBiCGStab:  Solving for ILambda_154_0, Initial residual = 1, Final residual = 9.00673783193e-61, No Iterations 60
DILUPBiCGStab:  Solving for ILambda_155_0, Initial residual = 1, Final residual = 9.01730931462e-62, No Iterations 60
DILUPBiCGStab:  Solving for ILambda_156_0, Initial residual = 1, Final residual = 3.63837346793e-63, No Iterations 78
DILUPBiCGStab:  Solving for ILambda_157_0, Initial residual = 1, Final residual = 7.27236731878e-61, No Iterations 110
DILUPBiCGStab:  Solving for ILambda_158_0, Initial residual = 1, Final residual = 5.92001712148e-61, No Iterations 126
DILUPBiCGStab:  Solving for ILambda_159_0, Initial residual = 1, Final residual = 6.66016532546e-61, No Iterations 151
DILUPBiCGStab:  Solving for ILambda_160_0, Initial residual = 1, Final residual = 4.32792956984e-61, No Iterations 166
DILUPBiCGStab:  Solving for ILambda_161_0, Initial residual = 1, Final residual = 1.9658096932e-61, No Iterations 176
DILUPBiCGStab:  Solving for ILambda_162_0, Initial residual = 1, Final residual = 8.5149483829e-61, No Iterations 178
DILUPBiCGStab:  Solving for ILambda_163_0, Initial residual = 1, Final residual = 3.43332826041e-61, No Iterations 165
DILUPBiCGStab:  Solving for ILambda_164_0, Initial residual = 1, Final residual = 5.26039376718e-61, No Iterations 153
DILUPBiCGStab:  Solving for ILambda_165_0, Initial residual = 1, Final residual = 4.13389103308e-61, No Iterations 133
DILUPBiCGStab:  Solving for ILambda_166_0, Initial residual = 1, Final residual = 5.83569597785e-61, No Iterations 109
DILUPBiCGStab:  Solving for ILambda_167_0, Initial residual = 1, Final residual = 2.03749594569e-61, No Iterations 69
DILUPBiCGStab:  Solving for ILambda_168_0, Initial residual = 1, Final residual = 3.49605430114e-72, No Iterations 3
DILUPBiCGStab:  Solving for ILambda_169_0, Initial residual = 1, Final residual = 1.3563220303e-71, No Iterations 3
DILUPBiCGStab:  Solving for ILambda_170_0, Initial residual = 1, Final residual = 7.9850926363e-72, No Iterations 3
DILUPBiCGStab:  Solving for ILambda_171_0, Initial residual = 1, Final residual = 2.30298544898e-70, No Iterations 3
DILUPBiCGStab:  Solving for ILambda_172_0, Initial residual = 1, Final residual = 1.16428196225e-71, No Iterations 3
DILUPBiCGStab:  Solving for ILambda_173_0, Initial residual = 1, Final residual = 2.41469407032e-71, No Iterations 3
DILUPBiCGStab:  Solving for ILambda_174_0, Initial residual = 1, Final residual = 1.73491045935e-71, No Iterations 3
DILUPBiCGStab:  Solving for ILambda_175_0, Initial residual = 1, Final residual = 2.91747392568e-71, No Iterations 3
DILUPBiCGStab:  Solving for ILambda_176_0, Initial residual = 1, Final residual = 1.60362643673e-71, No Iterations 3
DILUPBiCGStab:  Solving for ILambda_177_0, Initial residual = 1, Final residual = 1.26141225444e-71, No Iterations 3
DILUPBiCGStab:  Solving for ILambda_178_0, Initial residual = 1, Final residual = 4.66697554289e-72, No Iterations 3
DILUPBiCGStab:  Solving for ILambda_179_0, Initial residual = 1, Final residual = 1.94387300808e-72, No Iterations 3
DILUPBiCGStab:  Solving for ILambda_180_0, Initial residual = 1, Final residual = 2.52003569162e-61, No Iterations 69
DILUPBiCGStab:  Solving for ILambda_181_0, Initial residual = 1, Final residual = 3.97732697312e-61, No Iterations 110
DILUPBiCGStab:  Solving for ILambda_182_0, Initial residual = 1, Final residual = 9.65642518871e-61, No Iterations 133
DILUPBiCGStab:  Solving for ILambda_183_0, Initial residual = 1, Final residual = 9.52848566377e-61, No Iterations 153
DILUPBiCGStab:  Solving for ILambda_184_0, Initial residual = 1, Final residual = 4.2278514943e-61, No Iterations 164
DILUPBiCGStab:  Solving for ILambda_185_0, Initial residual = 1, Final residual = 3.10832124049e-61, No Iterations 179
DILUPBiCGStab:  Solving for ILambda_186_0, Initial residual = 1, Final residual = 8.62657175616e-61, No Iterations 176
DILUPBiCGStab:  Solving for ILambda_187_0, Initial residual = 1, Final residual = 4.92726293843e-61, No Iterations 164
DILUPBiCGStab:  Solving for ILambda_188_0, Initial residual = 1, Final residual = 8.7613752077e-61, No Iterations 152
DILUPBiCGStab:  Solving for ILambda_189_0, Initial residual = 1, Final residual = 3.7150202763e-61, No Iterations 128
DILUPBiCGStab:  Solving for ILambda_190_0, Initial residual = 1, Final residual = 2.97621503308e-61, No Iterations 109
DILUPBiCGStab:  Solving for ILambda_191_0, Initial residual = 1, Final residual = 1.54001295695e-61, No Iterations 78
DILUPBiCGStab:  Solving for ILambda_192_0, Initial residual = 1, Final residual = 5.69840697752e-61, No Iterations 50
DILUPBiCGStab:  Solving for ILambda_193_0, Initial residual = 1, Final residual = 4.53226063721e-61, No Iterations 51
DILUPBiCGStab:  Solving for ILambda_194_0, Initial residual = 1, Final residual = 1.72789364916e-61, No Iterations 52
DILUPBiCGStab:  Solving for ILambda_195_0, Initial residual = 1, Final residual = 3.46763265108e-61, No Iterations 53
DILUPBiCGStab:  Solving for ILambda_196_0, Initial residual = 1, Final residual = 2.67554046722e-61, No Iterations 53
DILUPBiCGStab:  Solving for ILambda_197_0, Initial residual = 1, Final residual = 6.98468642066e-61, No Iterations 54
DILUPBiCGStab:  Solving for ILambda_198_0, Initial residual = 1, Final residual = 9.07349277132e-62, No Iterations 54
DILUPBiCGStab:  Solving for ILambda_199_0, Initial residual = 1, Final residual = 3.50058598705e-61, No Iterations 54
DILUPBiCGStab:  Solving for ILambda_200_0, Initial residual = 1, Final residual = 5.39581777162e-61, No Iterations 54
DILUPBiCGStab:  Solving for ILambda_201_0, Initial residual = 1, Final residual = 2.75218467944e-61, No Iterations 52
DILUPBiCGStab:  Solving for ILambda_202_0, Initial residual = 1, Final residual = 4.50615405317e-61, No Iterations 50
DILUPBiCGStab:  Solving for ILambda_203_0, Initial residual = 1, Final residual = 6.64435536786e-61, No Iterations 49
DILUPBiCGStab:  Solving for ILambda_204_0, Initial residual = 1, Final residual = 4.0975385283e-61, No Iterations 69
DILUPBiCGStab:  Solving for ILambda_205_0, Initial residual = 1, Final residual = 6.88022800639e-61, No Iterations 101
DILUPBiCGStab:  Solving for ILambda_206_0, Initial residual = 1, Final residual = 3.15758260694e-61, No Iterations 131
DILUPBiCGStab:  Solving for ILambda_207_0, Initial residual = 1, Final residual = 4.52248281622e-61, No Iterations 153
DILUPBiCGStab:  Solving for ILambda_208_0, Initial residual = 1, Final residual = 6.76065200215e-61, No Iterations 162
DILUPBiCGStab:  Solving for ILambda_209_0, Initial residual = 1, Final residual = 2.78917130608e-61, No Iterations 169
DILUPBiCGStab:  Solving for ILambda_210_0, Initial residual = 1, Final residual = 4.36388149011e-61, No Iterations 172
DILUPBiCGStab:  Solving for ILambda_211_0, Initial residual = 1, Final residual = 4.44359262567e-61, No Iterations 165
DILUPBiCGStab:  Solving for ILambda_212_0, Initial residual = 1, Final residual = 1.33954090021e-61, No Iterations 153
DILUPBiCGStab:  Solving for ILambda_213_0, Initial residual = 1, Final residual = 7.3726586986e-61, No Iterations 133
DILUPBiCGStab:  Solving for ILambda_214_0, Initial residual = 1, Final residual = 3.9943881314e-61, No Iterations 108
DILUPBiCGStab:  Solving for ILambda_215_0, Initial residual = 1, Final residual = 3.69266155856e-61, No Iterations 66
DILUPBiCGStab:  Solving for ILambda_216_0, Initial residual = 1, Final residual = 5.5522924985e-73, No Iterations 3
DILUPBiCGStab:  Solving for ILambda_217_0, Initial residual = 1, Final residual = 3.37303365636e-70, No Iterations 3
DILUPBiCGStab:  Solving for ILambda_218_0, Initial residual = 1, Final residual = 5.59299068498e-73, No Iterations 3
DILUPBiCGStab:  Solving for ILambda_219_0, Initial residual = 1, Final residual = 1.23830529121e-71, No Iterations 3
DILUPBiCGStab:  Solving for ILambda_220_0, Initial residual = 1, Final residual = 1.10490368436e-67, No Iterations 3
DILUPBiCGStab:  Solving for ILambda_221_0, Initial residual = 1, Final residual = 1.16294040779e-70, No Iterations 3
DILUPBiCGStab:  Solving for ILambda_222_0, Initial residual = 1, Final residual = 1.51578282268e-72, No Iterations 3
DILUPBiCGStab:  Solving for ILambda_223_0, Initial residual = 1, Final residual = 2.68276130594e-70, No Iterations 3
DILUPBiCGStab:  Solving for ILambda_224_0, Initial residual = 1, Final residual = 7.47422488631e-71, No Iterations 3
DILUPBiCGStab:  Solving for ILambda_225_0, Initial residual = 1, Final residual = 8.27963837976e-71, No Iterations 3
DILUPBiCGStab:  Solving for ILambda_226_0, Initial residual = 1, Final residual = 4.26013570306e-72, No Iterations 3
DILUPBiCGStab:  Solving for ILambda_227_0, Initial residual = 1, Final residual = 2.7528535512e-73, No Iterations 3
DILUPBiCGStab:  Solving for ILambda_228_0, Initial residual = 1, Final residual = 1.88453682927e-61, No Iterations 66
DILUPBiCGStab:  Solving for ILambda_229_0, Initial residual = 1, Final residual = 1.38124621362e-61, No Iterations 109
DILUPBiCGStab:  Solving for ILambda_230_0, Initial residual = 1, Final residual = 2.15828099454e-61, No Iterations 135
DILUPBiCGStab:  Solving for ILambda_231_0, Initial residual = 1, Final residual = 4.37414776222e-61, No Iterations 151
DILUPBiCGStab:  Solving for ILambda_232_0, Initial residual = 1, Final residual = 7.17793360118e-61, No Iterations 163
DILUPBiCGStab:  Solving for ILambda_233_0, Initial residual = 1, Final residual = 9.76112559581e-61, No Iterations 168
DILUPBiCGStab:  Solving for ILambda_234_0, Initial residual = 1, Final residual = 3.82685417348e-61, No Iterations 169
DILUPBiCGStab:  Solving for ILambda_235_0, Initial residual = 1, Final residual = 5.42209827739e-61, No Iterations 163
DILUPBiCGStab:  Solving for ILambda_236_0, Initial residual = 1, Final residual = 9.57265558854e-61, No Iterations 152
DILUPBiCGStab:  Solving for ILambda_237_0, Initial residual = 1, Final residual = 3.4078425385e-61, No Iterations 131
DILUPBiCGStab:  Solving for ILambda_238_0, Initial residual = 1, Final residual = 9.40935932634e-61, No Iterations 102
DILUPBiCGStab:  Solving for ILambda_239_0, Initial residual = 1, Final residual = 3.34878759145e-61, No Iterations 70
DILUPBiCGStab:  Solving for ILambda_240_0, Initial residual = 1, Final residual = 1.00013199587e-61, No Iterations 40
DILUPBiCGStab:  Solving for ILambda_241_0, Initial residual = 1, Final residual = 2.52846740465e-61, No Iterations 40
DILUPBiCGStab:  Solving for ILambda_242_0, Initial residual = 1, Final residual = 6.19487032054e-61, No Iterations 42
DILUPBiCGStab:  Solving for ILambda_243_0, Initial residual = 1, Final residual = 2.93132004612e-61, No Iterations 43
DILUPBiCGStab:  Solving for ILambda_244_0, Initial residual = 1, Final residual = 9.46043876323e-61, No Iterations 43
DILUPBiCGStab:  Solving for ILambda_245_0, Initial residual = 1, Final residual = 3.67740036848e-61, No Iterations 42
DILUPBiCGStab:  Solving for ILambda_246_0, Initial residual = 1, Final residual = 8.94836342547e-62, No Iterations 43
DILUPBiCGStab:  Solving for ILambda_247_0, Initial residual = 1, Final residual = 2.14802544166e-61, No Iterations 44
DILUPBiCGStab:  Solving for ILambda_248_0, Initial residual = 1, Final residual = 8.98645371629e-62, No Iterations 43
DILUPBiCGStab:  Solving for ILambda_249_0, Initial residual = 1, Final residual = 3.62301197299e-61, No Iterations 42
DILUPBiCGStab:  Solving for ILambda_250_0, Initial residual = 1, Final residual = 1.88061131567e-61, No Iterations 40
DILUPBiCGStab:  Solving for ILambda_251_0, Initial residual = 1, Final residual = 5.01250781244e-61, No Iterations 40
DILUPBiCGStab:  Solving for ILambda_252_0, Initial residual = 1, Final residual = 9.79214162151e-61, No Iterations 64
DILUPBiCGStab:  Solving for ILambda_253_0, Initial residual = 1, Final residual = 5.11313276972e-61, No Iterations 102
DILUPBiCGStab:  Solving for ILambda_254_0, Initial residual = 1, Final residual = 6.51607439023e-61, No Iterations 129
DILUPBiCGStab:  Solving for ILambda_255_0, Initial residual = 1, Final residual = 8.52237320236e-61, No Iterations 142
DILUPBiCGStab:  Solving for ILambda_256_0, Initial residual = 1, Final residual = 4.11496217365e-61, No Iterations 150
DILUPBiCGStab:  Solving for ILambda_257_0, Initial residual = 1, Final residual = 2.76565821914e-61, No Iterations 156
DILUPBiCGStab:  Solving for ILambda_258_0, Initial residual = 1, Final residual = 9.63110335815e-61, No Iterations 153
DILUPBiCGStab:  Solving for ILambda_259_0, Initial residual = 1, Final residual = 8.62771502385e-63, No Iterations 153
DILUPBiCGStab:  Solving for ILambda_260_0, Initial residual = 1, Final residual = 2.95974163237e-61, No Iterations 146
DILUPBiCGStab:  Solving for ILambda_261_0, Initial residual = 1, Final residual = 3.79631421492e-61, No Iterations 131
DILUPBiCGStab:  Solving for ILambda_262_0, Initial residual = 1, Final residual = 4.01056750573e-61, No Iterations 105
DILUPBiCGStab:  Solving for ILambda_263_0, Initial residual = 1, Final residual = 8.88727426337e-61, No Iterations 62
DILUPBiCGStab:  Solving for ILambda_264_0, Initial residual = 1, Final residual = 2.98639216482e-73, No Iterations 3
DILUPBiCGStab:  Solving for ILambda_265_0, Initial residual = 1, Final residual = 1.3336464442e-71, No Iterations 3
DILUPBiCGStab:  Solving for ILambda_266_0, Initial residual = 1, Final residual = 2.11784404468e-73, No Iterations 3
DILUPBiCGStab:  Solving for ILambda_267_0, Initial residual = 1, Final residual = 1.07189944072e-71, No Iterations 3
DILUPBiCGStab:  Solving for ILambda_268_0, Initial residual = 1, Final residual = 1.33333726248e-73, No Iterations 3
DILUPBiCGStab:  Solving for ILambda_269_0, Initial residual = 1, Final residual = 4.62610257424e-73, No Iterations 3
DILUPBiCGStab:  Solving for ILambda_270_0, Initial residual = 1, Final residual = 2.48785728348e-73, No Iterations 3
DILUPBiCGStab:  Solving for ILambda_271_0, Initial residual = 1, Final residual = 1.32008437341e-72, No Iterations 3
DILUPBiCGStab:  Solving for ILambda_272_0, Initial residual = 1, Final residual = 6.03118481071e-72, No Iterations 3
DILUPBiCGStab:  Solving for ILambda_273_0, Initial residual = 1, Final residual = 3.02943172955e-71, No Iterations 3
DILUPBiCGStab:  Solving for ILambda_274_0, Initial residual = 1, Final residual = 1.83205181963e-73, No Iterations 3
DILUPBiCGStab:  Solving for ILambda_275_0, Initial residual = 1, Final residual = 4.6677174911e-71, No Iterations 3
DILUPBiCGStab:  Solving for ILambda_276_0, Initial residual = 1, Final residual = 1.62345919386e-61, No Iterations 63
DILUPBiCGStab:  Solving for ILambda_277_0, Initial residual = 1, Final residual = 4.54402789856e-61, No Iterations 104
DILUPBiCGStab:  Solving for ILambda_278_0, Initial residual = 1, Final residual = 5.77729809193e-61, No Iterations 131
DILUPBiCGStab:  Solving for ILambda_279_0, Initial residual = 1, Final residual = 3.67040159947e-61, No Iterations 147
DILUPBiCGStab:  Solving for ILambda_280_0, Initial residual = 1, Final residual = 4.63623382525e-61, No Iterations 154
DILUPBiCGStab:  Solving for ILambda_281_0, Initial residual = 1, Final residual = 9.02822425013e-61, No Iterations 154
DILUPBiCGStab:  Solving for ILambda_282_0, Initial residual = 1, Final residual = 3.208249087e-61, No Iterations 152
DILUPBiCGStab:  Solving for ILambda_283_0, Initial residual = 1, Final residual = 7.97797598472e-61, No Iterations 150
DILUPBiCGStab:  Solving for ILambda_284_0, Initial residual = 1, Final residual = 4.93894043157e-61, No Iterations 143
[...]
DILUPBiCGStab:  Solving for ILambda_140_0, Initial residual = 4.78328426443e-15, Final residual = 1.89869850137e-61, No Iterations 113
DILUPBiCGStab:  Solving for ILambda_141_0, Initial residual = 3.65695712766e-15, Final residual = 9.67940670174e-61, No Iterations 102
DILUPBiCGStab:  Solving for ILambda_142_0, Initial residual = 3.38038771232e-15, Final residual = 7.82812065132e-62, No Iterations 83
DILUPBiCGStab:  Solving for ILambda_143_0, Initial residual = 2.04433781285e-15, Final residual = 3.42067501734e-61, No Iterations 51
DILUPBiCGStab:  Solving for ILambda_144_0, Initial residual = 1.89982609993e-15, Final residual = 5.27346249186e-61, No Iterations 39
DILUPBiCGStab:  Solving for ILambda_145_0, Initial residual = 2.52173916983e-15, Final residual = 3.59201031228e-61, No Iterations 39
DILUPBiCGStab:  Solving for ILambda_146_0, Initial residual = 2.47629486918e-15, Final residual = 9.27402535913e-61, No Iterations 38
DILUPBiCGStab:  Solving for ILambda_147_0, Initial residual = 2.48761822944e-15, Final residual = 2.61455346405e-61, No Iterations 39
DILUPBiCGStab:  Solving for ILambda_148_0, Initial residual = 2.69165286219e-15, Final residual = 9.92537557895e-61, No Iterations 40
DILUPBiCGStab:  Solving for ILambda_149_0, Initial residual = 3.14131774015e-15, Final residual = 8.21182871369e-61, No Iterations 40
DILUPBiCGStab:  Solving for ILambda_150_0, Initial residual = 2.99862590248e-15, Final residual = 6.31152610223e-61, No Iterations 42
DILUPBiCGStab:  Solving for ILambda_151_0, Initial residual = 2.91909103094e-15, Final residual = 3.68379165403e-61, No Iterations 41
DILUPBiCGStab:  Solving for ILambda_152_0, Initial residual = 2.80833230313e-15, Final residual = 2.37595708865e-61, No Iterations 39
DILUPBiCGStab:  Solving for ILambda_153_0, Initial residual = 2.6922879288e-15, Final residual = 2.9355944047e-61, No Iterations 41
DILUPBiCGStab:  Solving for ILambda_154_0, Initial residual = 2.75175669022e-15, Final residual = 9.72995244478e-61, No Iterations 38
DILUPBiCGStab:  Solving for ILambda_155_0, Initial residual = 2.64372191174e-15, Final residual = 2.5558424364e-61, No Iterations 36
DILUPBiCGStab:  Solving for ILambda_156_0, Initial residual = 1.99057717809e-15, Final residual = 2.49660737086e-61, No Iterations 57
DILUPBiCGStab:  Solving for ILambda_157_0, Initial residual = 2.59165236072e-15, Final residual = 2.8050170301e-61, No Iterations 83
DILUPBiCGStab:  Solving for ILambda_158_0, Initial residual = 3.93900178376e-15, Final residual = 8.49784846278e-61, No Iterations 97
DILUPBiCGStab:  Solving for ILambda_159_0, Initial residual = 3.85835238679e-15, Final residual = 8.53523167821e-61, No Iterations 113
DILUPBiCGStab:  Solving for ILambda_160_0, Initial residual = 5.20983237984e-15, Final residual = 5.45803093649e-61, No Iterations 121
DILUPBiCGStab:  Solving for ILambda_161_0, Initial residual = 5.46943737289e-15, Final residual = 3.94078639728e-61, No Iterations 128
DILUPBiCGStab:  Solving for ILambda_162_0, Initial residual = 5.87050804719e-15, Final residual = 2.42496096754e-61, No Iterations 136
DILUPBiCGStab:  Solving for ILambda_163_0, Initial residual = 4.75149556106e-15, Final residual = 4.67437551619e-61, No Iterations 128
DILUPBiCGStab:  Solving for ILambda_164_0, Initial residual = 4.16108466011e-15, Final residual = 6.72382393478e-61, No Iterations 117
DILUPBiCGStab:  Solving for ILambda_165_0, Initial residual = 3.53645167209e-15, Final residual = 1.46690903143e-61, No Iterations 105
DILUPBiCGStab:  Solving for ILambda_166_0, Initial residual = 3.12616952839e-15, Final residual = 9.76792547076e-61, No Iterations 83
DILUPBiCGStab:  Solving for ILambda_167_0, Initial residual = 2.14338714046e-15, Final residual = 9.09333239576e-61, No Iterations 50
DILUPBiCGStab:  Solving for ILambda_168_0, Initial residual = 2.04641805954e-15, Final residual = 4.39165820813e-72, No Iterations 2
DILUPBiCGStab:  Solving for ILambda_169_0, Initial residual = 2.64538853737e-15, Final residual = 7.30335856154e-73, No Iterations 2
DILUPBiCGStab:  Solving for ILambda_170_0, Initial residual = 2.72752184905e-15, Final residual = 1.17881677305e-72, No Iterations 2
DILUPBiCGStab:  Solving for ILambda_171_0, Initial residual = 2.75344466692e-15, Final residual = 2.89785919144e-75, No Iterations 2
DILUPBiCGStab:  Solving for ILambda_172_0, Initial residual = 2.85067853287e-15, Final residual = 3.93993967548e-75, No Iterations 2
DILUPBiCGStab:  Solving for ILambda_173_0, Initial residual = 2.78507304613e-15, Final residual = 9.16443967975e-73, No Iterations 2
DILUPBiCGStab:  Solving for ILambda_174_0, Initial residual = 2.65477572282e-15, Final residual = 2.94110824804e-75, No Iterations 2
DILUPBiCGStab:  Solving for ILambda_175_0, Initial residual = 2.60774671131e-15, Final residual = 1.47065559209e-74, No Iterations 2
DILUPBiCGStab:  Solving for ILambda_176_0, Initial residual = 2.52015254695e-15, Final residual = 1.57475147104e-71, No Iterations 2
DILUPBiCGStab:  Solving for ILambda_177_0, Initial residual = 2.48719173402e-15, Final residual = 2.73575629646e-73, No Iterations 2
DILUPBiCGStab:  Solving for ILambda_178_0, Initial residual = 2.42590813236e-15, Final residual = 7.49274631243e-61, No Iterations 2
DILUPBiCGStab:  Solving for ILambda_179_0, Initial residual = 1.91168283839e-15, Final residual = 8.11508615565e-61, No Iterations 2
DILUPBiCGStab:  Solving for ILambda_180_0, Initial residual = 2.34676991255e-15, Final residual = 4.03479085253e-61, No Iterations 53
DILUPBiCGStab:  Solving for ILambda_181_0, Initial residual = 3.49590704174e-15, Final residual = 4.49332302121e-61, No Iterations 83
DILUPBiCGStab:  Solving for ILambda_182_0, Initial residual = 3.9074521326e-15, Final residual = 6.41546894493e-61, No Iterations 103
DILUPBiCGStab:  Solving for ILambda_183_0, Initial residual = 3.95967314868e-15, Final residual = 7.74980763589e-61, No Iterations 113
DILUPBiCGStab:  Solving for ILambda_184_0, Initial residual = 4.52942729585e-15, Final residual = 3.69855039563e-61, No Iterations 124
DILUPBiCGStab:  Solving for ILambda_185_0, Initial residual = 5.16167890033e-15, Final residual = 7.69094616923e-61, No Iterations 132
DILUPBiCGStab:  Solving for ILambda_186_0, Initial residual = 4.77437468949e-15, Final residual = 6.81214789752e-61, No Iterations 134
DILUPBiCGStab:  Solving for ILambda_187_0, Initial residual = 5.57563578481e-15, Final residual = 4.42418505273e-61, No Iterations 123
DILUPBiCGStab:  Solving for ILambda_188_0, Initial residual = 4.04385302336e-15, Final residual = 6.47797184652e-61, No Iterations 115
DILUPBiCGStab:  Solving for ILambda_189_0, Initial residual = 3.66310065665e-15, Final residual = 5.97100733919e-61, No Iterations 98
DILUPBiCGStab:  Solving for ILambda_190_0, Initial residual = 3.30481588463e-15, Final residual = 3.88139043228e-61, No Iterations 80
DILUPBiCGStab:  Solving for ILambda_191_0, Initial residual = 2.09861147857e-15, Final residual = 6.80897263029e-61, No Iterations 58
DILUPBiCGStab:  Solving for ILambda_192_0, Initial residual = 6.74425041997e-16, Final residual = 2.88328021832e-61, No Iterations 33
DILUPBiCGStab:  Solving for ILambda_193_0, Initial residual = 7.08117104885e-16, Final residual = 3.61230799157e-62, No Iterations 33
DILUPBiCGStab:  Solving for ILambda_194_0, Initial residual = 7.33844775644e-16, Final residual = 4.12402549501e-61, No Iterations 35
DILUPBiCGStab:  Solving for ILambda_195_0, Initial residual = 6.04191887918e-16, Final residual = 3.12767114453e-61, No Iterations 34
DILUPBiCGStab:  Solving for ILambda_196_0, Initial residual = 5.86734391546e-16, Final residual = 2.0616769718e-61, No Iterations 35
DILUPBiCGStab:  Solving for ILambda_197_0, Initial residual = 5.17583019278e-16, Final residual = 8.46053776961e-61, No Iterations 33
DILUPBiCGStab:  Solving for ILambda_198_0, Initial residual = 5.21019305344e-16, Final residual = 1.21019397101e-61, No Iterations 37
DILUPBiCGStab:  Solving for ILambda_199_0, Initial residual = 5.39676253371e-16, Final residual = 6.86487385465e-61, No Iterations 33
DILUPBiCGStab:  Solving for ILambda_200_0, Initial residual = 6.82196589426e-16, Final residual = 1.19318425421e-61, No Iterations 32
DILUPBiCGStab:  Solving for ILambda_201_0, Initial residual = 7.91974036785e-16, Final residual = 1.25258234217e-61, No Iterations 34
DILUPBiCGStab:  Solving for ILambda_202_0, Initial residual = 7.81238699097e-16, Final residual = 9.34424034332e-61, No Iterations 33
DILUPBiCGStab:  Solving for ILambda_203_0, Initial residual = 7.21876565516e-16, Final residual = 9.56507077937e-62, No Iterations 31
DILUPBiCGStab:  Solving for ILambda_204_0, Initial residual = 7.12552533001e-16, Final residual = 2.06334602424e-62, No Iterations 52
DILUPBiCGStab:  Solving for ILambda_205_0, Initial residual = 8.596233539e-16, Final residual = 5.37673096929e-61, No Iterations 78
DILUPBiCGStab:  Solving for ILambda_206_0, Initial residual = 1.13501956824e-15, Final residual = 7.69478139408e-61, No Iterations 96
DILUPBiCGStab:  Solving for ILambda_207_0, Initial residual = 1.0679296569e-15, Final residual = 4.57395923013e-61, No Iterations 109
DILUPBiCGStab:  Solving for ILambda_208_0, Initial residual = 1.50784160891e-15, Final residual = 7.02110515767e-61, No Iterations 122
DILUPBiCGStab:  Solving for ILambda_209_0, Initial residual = 1.11058401911e-15, Final residual = 6.82375490913e-61, No Iterations 125
DILUPBiCGStab:  Solving for ILambda_210_0, Initial residual = 1.29431505897e-15, Final residual = 5.03219703639e-61, No Iterations 127
DILUPBiCGStab:  Solving for ILambda_211_0, Initial residual = 1.0305498514e-15, Final residual = 5.63719806922e-61, No Iterations 122
DILUPBiCGStab:  Solving for ILambda_212_0, Initial residual = 1.2277653295e-15, Final residual = 7.3740197244e-61, No Iterations 111
DILUPBiCGStab:  Solving for ILambda_213_0, Initial residual = 1.16440243718e-15, Final residual = 8.53582765635e-61, No Iterations 96
DILUPBiCGStab:  Solving for ILambda_214_0, Initial residual = 8.92142112217e-16, Final residual = 9.29090901118e-61, No Iterations 77
DILUPBiCGStab:  Solving for ILambda_215_0, Initial residual = 7.95136001543e-16, Final residual = 3.02787426198e-61, No Iterations 46
DILUPBiCGStab:  Solving for ILambda_216_0, Initial residual = 7.12037900714e-16, Final residual = 7.80865034144e-75, No Iterations 2
DILUPBiCGStab:  Solving for ILambda_217_0, Initial residual = 7.66384781454e-16, Final residual = 1.56248218771e-72, No Iterations 2
DILUPBiCGStab:  Solving for ILambda_218_0, Initial residual = 7.74301014193e-16, Final residual = 1.84328397059e-72, No Iterations 2
DILUPBiCGStab:  Solving for ILambda_219_0, Initial residual = 6.3942593563e-16, Final residual = 8.52870198284e-61, No Iterations 2
DILUPBiCGStab:  Solving for ILambda_220_0, Initial residual = 6.06261451102e-16, Final residual = 2.96551704513e-72, No Iterations 2
DILUPBiCGStab:  Solving for ILambda_221_0, Initial residual = 5.42503731442e-16, Final residual = 3.50800299982e-75, No Iterations 2
DILUPBiCGStab:  Solving for ILambda_222_0, Initial residual = 4.95926406428e-16, Final residual = 1.30496717478e-73, No Iterations 2
DILUPBiCGStab:  Solving for ILambda_223_0, Initial residual = 5.80409450243e-16, Final residual = 2.06464276797e-73, No Iterations 2
DILUPBiCGStab:  Solving for ILambda_224_0, Initial residual = 6.31086744734e-16, Final residual = 1.61604071884e-72, No Iterations 2
DILUPBiCGStab:  Solving for ILambda_225_0, Initial residual = 7.15823778548e-16, Final residual = 6.79327367064e-61, No Iterations 2
DILUPBiCGStab:  Solving for ILambda_226_0, Initial residual = 7.03283320134e-16, Final residual = 2.62165793707e-73, No Iterations 2
DILUPBiCGStab:  Solving for ILambda_227_0, Initial residual = 6.77606716653e-16, Final residual = 5.80073168635e-61, No Iterations 2
DILUPBiCGStab:  Solving for ILambda_228_0, Initial residual = 7.68258345079e-16, Final residual = 5.87312418284e-61, No Iterations 47
DILUPBiCGStab:  Solving for ILambda_229_0, Initial residual = 1.07470043705e-15, Final residual = 4.11478540342e-61, No Iterations 77
DILUPBiCGStab:  Solving for ILambda_230_0, Initial residual = 1.10096586776e-15, Final residual = 5.26527707167e-61, No Iterations 97
DILUPBiCGStab:  Solving for ILambda_231_0, Initial residual = 1.13601585817e-15, Final residual = 3.4939766545e-61, No Iterations 109
DILUPBiCGStab:  Solving for ILambda_232_0, Initial residual = 1.15319149662e-15, Final residual = 6.27170975397e-61, No Iterations 124
DILUPBiCGStab:  Solving for ILambda_233_0, Initial residual = 1.28922692572e-15, Final residual = 6.58222480926e-61, No Iterations 128
DILUPBiCGStab:  Solving for ILambda_234_0, Initial residual = 1.13814186623e-15, Final residual = 9.23719423759e-61, No Iterations 129
DILUPBiCGStab:  Solving for ILambda_235_0, Initial residual = 1.4336876112e-15, Final residual = 8.07947702344e-61, No Iterations 123
DILUPBiCGStab:  Solving for ILambda_236_0, Initial residual = 8.84107811294e-16, Final residual = 1.66892219916e-61, No Iterations 111
DILUPBiCGStab:  Solving for ILambda_237_0, Initial residual = 8.76003617512e-16, Final residual = 2.47227056429e-61, No Iterations 95
DILUPBiCGStab:  Solving for ILambda_238_0, Initial residual = 9.82387608397e-16, Final residual = 4.90226050108e-61, No Iterations 76
DILUPBiCGStab:  Solving for ILambda_239_0, Initial residual = 6.95777553588e-16, Final residual = 7.26903683731e-61, No Iterations 52
DILUPBiCGStab:  Solving for ILambda_240_0, Initial residual = 1.83072933221e-16, Final residual = 2.88842041447e-61, No Iterations 26
DILUPBiCGStab:  Solving for ILambda_241_0, Initial residual = 1.96228031338e-16, Final residual = 6.68187166195e-61, No Iterations 26
DILUPBiCGStab:  Solving for ILambda_242_0, Initial residual = 2.06122774543e-16, Final residual = 2.51627865139e-61, No Iterations 27
DILUPBiCGStab:  Solving for ILambda_243_0, Initial residual = 2.76457915792e-16, Final residual = 2.42135516302e-61, No Iterations 26
DILUPBiCGStab:  Solving for ILambda_244_0, Initial residual = 2.79657802586e-16, Final residual = 1.42204254654e-61, No Iterations 27
DILUPBiCGStab:  Solving for ILambda_245_0, Initial residual = 2.97563436231e-16, Final residual = 8.07740660113e-63, No Iterations 28
DILUPBiCGStab:  Solving for ILambda_246_0, Initial residual = 2.98677874013e-16, Final residual = 2.75494058109e-61, No Iterations 28
DILUPBiCGStab:  Solving for ILambda_247_0, Initial residual = 3.02371300953e-16, Final residual = 7.28918824718e-61, No Iterations 26
DILUPBiCGStab:  Solving for ILambda_248_0, Initial residual = 3.03243782609e-16, Final residual = 2.1893611397e-61, No Iterations 27
DILUPBiCGStab:  Solving for ILambda_249_0, Initial residual = 2.34112594264e-16, Final residual = 5.14317242732e-61, No Iterations 27
DILUPBiCGStab:  Solving for ILambda_250_0, Initial residual = 2.31817574227e-16, Final residual = 1.22083009114e-61, No Iterations 27
DILUPBiCGStab:  Solving for ILambda_251_0, Initial residual = 2.11975984852e-16, Final residual = 7.16565316545e-61, No Iterations 24
DILUPBiCGStab:  Solving for ILambda_252_0, Initial residual = 2.21118445708e-16, Final residual = 5.92714313771e-61, No Iterations 48
DILUPBiCGStab:  Solving for ILambda_253_0, Initial residual = 2.65291768651e-16, Final residual = 3.39356135014e-61, No Iterations 73
DILUPBiCGStab:  Solving for ILambda_254_0, Initial residual = 3.41051015656e-16, Final residual = 5.02708871301e-61, No Iterations 91
DILUPBiCGStab:  Solving for ILambda_255_0, Initial residual = 3.50739995971e-16, Final residual = 8.5354571027e-61, No Iterations 104
DILUPBiCGStab:  Solving for ILambda_256_0, Initial residual = 4.10727882961e-16, Final residual = 9.19887499581e-61, No Iterations 120
DILUPBiCGStab:  Solving for ILambda_257_0, Initial residual = 4.26466168747e-16, Final residual = 8.01357928238e-61, No Iterations 124
DILUPBiCGStab:  Solving for ILambda_258_0, Initial residual = 4.1340514277e-16, Final residual = 5.66969723674e-61, No Iterations 127
DILUPBiCGStab:  Solving for ILambda_259_0, Initial residual = 3.84309059217e-16, Final residual = 1.94280570622e-61, No Iterations 120
DILUPBiCGStab:  Solving for ILambda_260_0, Initial residual = 3.6631449601e-16, Final residual = 5.21918387604e-61, No Iterations 108
DILUPBiCGStab:  Solving for ILambda_261_0, Initial residual = 3.44226759019e-16, Final residual = 6.28396125839e-61, No Iterations 92
DILUPBiCGStab:  Solving for ILambda_262_0, Initial residual = 2.91562620774e-16, Final residual = 3.9036036015e-61, No Iterations 73
DILUPBiCGStab:  Solving for ILambda_263_0, Initial residual = 2.31965944188e-16, Final residual = 3.81136166707e-61, No Iterations 44
DILUPBiCGStab:  Solving for ILambda_264_0, Initial residual = 2.08653341405e-16, Final residual = 3.47959433469e-61, No Iterations 2
DILUPBiCGStab:  Solving for ILambda_265_0, Initial residual = 2.28261224289e-16, Final residual = 1.15439821086e-61, No Iterations 2
DILUPBiCGStab:  Solving for ILambda_266_0, Initial residual = 2.31608158553e-16, Final residual = 9.24865099177e-62, No Iterations 2
DILUPBiCGStab:  Solving for ILambda_267_0, Initial residual = 3.03068632202e-16, Final residual = 1.50008032996e-61, No Iterations 2
DILUPBiCGStab:  Solving for ILambda_268_0, Initial residual = 3.07749545743e-16, Final residual = 3.34425272263e-62, No Iterations 2
DILUPBiCGStab:  Solving for ILambda_269_0, Initial residual = 2.98542617428e-16, Final residual = 2.32836594356e-61, No Iterations 2
DILUPBiCGStab:  Solving for ILambda_270_0, Initial residual = 2.95597708518e-16, Final residual = 1.25247164521e-61, No Iterations 2
DILUPBiCGStab:  Solving for ILambda_271_0, Initial residual = 2.8326482146e-16, Final residual = 3.11322762595e-61, No Iterations 2
DILUPBiCGStab:  Solving for ILambda_272_0, Initial residual = 2.78369417386e-16, Final residual = 1.3486436211e-61, No Iterations 2
DILUPBiCGStab:  Solving for ILambda_273_0, Initial residual = 2.02022466476e-16, Final residual = 3.31034327487e-62, No Iterations 2
DILUPBiCGStab:  Solving for ILambda_274_0, Initial residual = 2.03534571765e-16, Final residual = 1.88845439457e-61, No Iterations 2
DILUPBiCGStab:  Solving for ILambda_275_0, Initial residual = 1.82453852018e-16, Final residual = 1.61048702841e-61, No Iterations 2
DILUPBiCGStab:  Solving for ILambda_276_0, Initial residual = 2.17037628452e-16, Final residual = 1.95622591318e-61, No Iterations 45
DILUPBiCGStab:  Solving for ILambda_277_0, Initial residual = 2.98060931901e-16, Final residual = 7.52045281991e-62, No Iterations 76
DILUPBiCGStab:  Solving for ILambda_278_0, Initial residual = 2.87298526961e-16, Final residual = 4.79051424919e-61, No Iterations 91
DILUPBiCGStab:  Solving for ILambda_279_0, Initial residual = 4.6924511998e-16, Final residual = 9.17920424298e-61, No Iterations 106
DILUPBiCGStab:  Solving for ILambda_280_0, Initial residual = 3.96727350521e-16, Final residual = 6.17630762298e-61, No Iterations 121
DILUPBiCGStab:  Solving for ILambda_281_0, Initial residual = 5.04806205409e-16, Final residual = 1.55067820161e-61, No Iterations 131
DILUPBiCGStab:  Solving for ILambda_282_0, Initial residual = 4.199279877e-16, Final residual = 5.09470954371e-61, No Iterations 122
DILUPBiCGStab:  Solving for ILambda_283_0, Initial residual = 3.51700885363e-16, Final residual = 9.64579715057e-61, No Iterations 119
DILUPBiCGStab:  Solving for ILambda_284_0, Initial residual = 3.65297711451e-16, Final residual = 4.68028707403e-61, No Iterations 105
DILUPBiCGStab:  Solving for ILambda_285_0, Initial residual = 2.61609164628e-16, Final residual = 6.56605721899e-61, No Iterations 93
DILUPBiCGStab:  Solving for ILambda_286_0, Initial residual = 2.65984662385e-16, Final residual = 4.68984291568e-61, No Iterations 73
DILUPBiCGStab:  Solving for ILambda_287_0, Initial residual = 2.04297569479e-16, Final residual = 1.16322087491e-61, No Iterations 46
min/max(T) = 1000, 1000
ExecutionTime = 7887.14 s  ClockTime = 7888 s

writeObjects writeObjects1.writeObjects write:
    writing object a
    writing object qem
End

