/*---------------------------------------------------------------------------*\
| =========                 |                                                 |
| \\      /  F ield         | OpenFOAM: The Open Source CFD Toolbox           |
|  \\    /   O peration     | Version:  2306                                  |
|   \\  /    A nd           | Website:  www.openfoam.com                      |
|    \\/     M anipulation  |                                                 |
\*---------------------------------------------------------------------------*/
Build  : _fbf00d6b-20230626 OPENFOAM=2306 version=2306
Arch   : "LSB;label=32;scalar=64"
Exec   : fireRADFoam_MaCFP
Date   : Mar 12 2024
Time   : 19:33:08
Host   : pop-os
PID    : 173398
I/O    : uncollated
Case   : /home/rafay/Desktop/Study/Radiative_Heat_Transfer/Local_copy_RHT2324/01_Projects/02_Rafay/Case_1_q1D_SolidAngle/new_case3/th_6-ph_12/tau_1/res_2
nProcs : 1
trapFpe: Floating point exception trapping enabled (FOAM_SIGFPE).
fileModificationChecking : Monitoring run-time modified files using timeStampMaster (fileModificationSkew 5, maxFileModificationPolls 20)
allowSystemOperations : Allowing user-supplied system call operations

// * * * * * * * * * * * * * * * * * * * * * * * * * * * * * * * * * * * * * //
Create time

Create mesh for time = 0


PIMPLE: no residual control data found. Calculations will employ 10 corrector loops

Reading thermophysical properties

Selecting thermodynamics package 
{
    type            hePsiThermo;
    mixture         singleStepReactingMixture;
    transport       sutherland;
    thermo          janaf;
    energy          sensibleEnthalpy;
    equationOfState perfectGas;
    specie          specie;
}

Selecting chemistryReader foamChemistryReader
    elements not defined in "/home/rafay/Desktop/Study/Radiative_Heat_Transfer/Local_copy_RHT2324/01_Projects/02_Rafay/Case_1_q1D_SolidAngle/new_case3/th_6-ph_12/tau_1/res_2/constant/reactions"
Fuel heat of combustion :47168962.4726
stoichiometric air-fuel ratio :14.6914056505
stoichiometric oxygen-fuel ratio :3.42181919285
Maximum products mass concentrations:
    H2O: 0.0818486943001
    CO2: 0.199950099979
    N2: 0.718201205721
Creating component thermo properties:
    multi-component carrier - 6 species
    no liquid components
    no solid components
Creating field rho


Reading field U

Reading/calculating face flux field phi

Selecting radiationModel fvDOM
Selecting absorptionEmissionModel constantAbsorptionEmission
Selecting scatterModel none
Selecting sootModel none
fvDOM : Allocated 288 rays with average orientation:
	I0 : dAve : 	(0.000387488209079 0.00591192763451 0.0163624617374) : omega : 	0.0175372336349 : d : 	(0.0169275754541 0.25826489366 0.965925826289)
	I1 : dAve : 	(0.00115583459655 0.00581077291359 0.0163624617374) : omega : 	0.0175372336349 : d : 	(0.050493090853 0.253845909725 0.965925826289)
	I2 : dAve : 	(0.00190440433361 0.00561019425706 0.0163624617374) : omega : 	0.0175372336349 : d : 	(0.083194655468 0.245083551895 0.965925826289)
	I3 : dAve : 	(0.00262038918453 0.00531362362136 0.0163624617374) : omega : 	0.0175372336349 : d : 	(0.114472736462 0.232127746542 0.965925826289)
	I4 : dAve : 	(0.00329153844998 0.00492613541228 0.0163624617374) : omega : 	0.0175372336349 : d : 	(0.143792157198 0.215200171088 0.965925826289)
	I5 : dAve : 	(0.00390636857998 0.00445435966052 0.0163624617374) : omega : 	0.0175372336349 : d : 	(0.170651254257 0.194590461042 0.965925826289)
	I6 : dAve : 	(0.00445435966052 0.00390636857998 0.0163624617374) : omega : 	0.0175372336349 : d : 	(0.194590461042 0.170651254257 0.965925826289)
	I7 : dAve : 	(0.00492613541228 0.00329153844998 0.0163624617374) : omega : 	0.0175372336349 : d : 	(0.215200171088 0.143792157198 0.965925826289)
	I8 : dAve : 	(0.00531362362136 0.00262038918453 0.0163624617374) : omega : 	0.0175372336349 : d : 	(0.232127746542 0.114472736462 0.965925826289)
	I9 : dAve : 	(0.00561019425706 0.00190440433361 0.0163624617374) : omega : 	0.0175372336349 : d : 	(0.245083551895 0.083194655468 0.965925826289)
	I10 : dAve : 	(0.00581077291359 0.00115583459655 0.0163624617374) : omega : 	0.0175372336349 : d : 	(0.253845909725 0.050493090853 0.965925826289)
	I11 : dAve : 	(0.00591192763451 0.000387488209079 0.0163624617374) : omega : 	0.0175372336349 : d : 	(0.25826489366 0.0169275754541 0.965925826289)
	I12 : dAve : 	(0.00591192763451 -0.000387488209079 0.0163624617374) : omega : 	0.0175372336349 : d : 	(0.25826489366 -0.0169275754541 0.965925826289)
	I13 : dAve : 	(0.00581077291359 -0.00115583459655 0.0163624617374) : omega : 	0.0175372336349 : d : 	(0.253845909725 -0.050493090853 0.965925826289)
	I14 : dAve : 	(0.00561019425706 -0.00190440433361 0.0163624617374) : omega : 	0.0175372336349 : d : 	(0.245083551895 -0.083194655468 0.965925826289)
	I15 : dAve : 	(0.00531362362136 -0.00262038918453 0.0163624617374) : omega : 	0.0175372336349 : d : 	(0.232127746542 -0.114472736462 0.965925826289)
	I16 : dAve : 	(0.00492613541228 -0.00329153844998 0.0163624617374) : omega : 	0.0175372336349 : d : 	(0.215200171088 -0.143792157198 0.965925826289)
	I17 : dAve : 	(0.00445435966052 -0.00390636857998 0.0163624617374) : omega : 	0.0175372336349 : d : 	(0.194590461042 -0.170651254257 0.965925826289)
	I18 : dAve : 	(0.00390636857998 -0.00445435966052 0.0163624617374) : omega : 	0.0175372336349 : d : 	(0.170651254257 -0.194590461042 0.965925826289)
	I19 : dAve : 	(0.00329153844998 -0.00492613541228 0.0163624617374) : omega : 	0.0175372336349 : d : 	(0.143792157198 -0.215200171088 0.965925826289)
	I20 : dAve : 	(0.00262038918453 -0.00531362362136 0.0163624617374) : omega : 	0.0175372336349 : d : 	(0.114472736462 -0.232127746542 0.965925826289)
	I21 : dAve : 	(0.00190440433361 -0.00561019425706 0.0163624617374) : omega : 	0.0175372336349 : d : 	(0.083194655468 -0.245083551895 0.965925826289)
	I22 : dAve : 	(0.00115583459655 -0.00581077291359 0.0163624617374) : omega : 	0.0175372336349 : d : 	(0.050493090853 -0.253845909725 0.965925826289)
	I23 : dAve : 	(0.000387488209079 -0.00591192763451 0.0163624617374) : omega : 	0.0175372336349 : d : 	(0.0169275754541 -0.25826489366 0.965925826289)
	I24 : dAve : 	(-0.000387488209079 -0.00591192763451 0.0163624617374) : omega : 	0.0175372336349 : d : 	(-0.0169275754541 -0.25826489366 0.965925826289)
	I25 : dAve : 	(-0.00115583459655 -0.00581077291359 0.0163624617374) : omega : 	0.0175372336349 : d : 	(-0.050493090853 -0.253845909725 0.965925826289)
	I26 : dAve : 	(-0.00190440433361 -0.00561019425706 0.0163624617374) : omega : 	0.0175372336349 : d : 	(-0.083194655468 -0.245083551895 0.965925826289)
	I27 : dAve : 	(-0.00262038918453 -0.00531362362136 0.0163624617374) : omega : 	0.0175372336349 : d : 	(-0.114472736462 -0.232127746542 0.965925826289)
	I28 : dAve : 	(-0.00329153844998 -0.00492613541228 0.0163624617374) : omega : 	0.0175372336349 : d : 	(-0.143792157198 -0.215200171088 0.965925826289)
	I29 : dAve : 	(-0.00390636857998 -0.00445435966052 0.0163624617374) : omega : 	0.0175372336349 : d : 	(-0.170651254257 -0.194590461042 0.965925826289)
	I30 : dAve : 	(-0.00445435966052 -0.00390636857998 0.0163624617374) : omega : 	0.0175372336349 : d : 	(-0.194590461042 -0.170651254257 0.965925826289)
	I31 : dAve : 	(-0.00492613541228 -0.00329153844998 0.0163624617374) : omega : 	0.0175372336349 : d : 	(-0.215200171088 -0.143792157198 0.965925826289)
	I32 : dAve : 	(-0.00531362362136 -0.00262038918453 0.0163624617374) : omega : 	0.0175372336349 : d : 	(-0.232127746542 -0.114472736462 0.965925826289)
	I33 : dAve : 	(-0.00561019425706 -0.00190440433361 0.0163624617374) : omega : 	0.0175372336349 : d : 	(-0.245083551895 -0.083194655468 0.965925826289)
	I34 : dAve : 	(-0.00581077291359 -0.00115583459655 0.0163624617374) : omega : 	0.0175372336349 : d : 	(-0.253845909725 -0.050493090853 0.965925826289)
	I35 : dAve : 	(-0.00591192763451 -0.000387488209079 0.0163624617374) : omega : 	0.0175372336349 : d : 	(-0.25826489366 -0.0169275754541 0.965925826289)
	I36 : dAve : 	(-0.00591192763451 0.000387488209079 0.0163624617374) : omega : 	0.0175372336349 : d : 	(-0.25826489366 0.0169275754541 0.965925826289)
	I37 : dAve : 	(-0.00581077291359 0.00115583459655 0.0163624617374) : omega : 	0.0175372336349 : d : 	(-0.253845909725 0.050493090853 0.965925826289)
	I38 : dAve : 	(-0.00561019425706 0.00190440433361 0.0163624617374) : omega : 	0.0175372336349 : d : 	(-0.245083551895 0.083194655468 0.965925826289)
	I39 : dAve : 	(-0.00531362362136 0.00262038918453 0.0163624617374) : omega : 	0.0175372336349 : d : 	(-0.232127746542 0.114472736462 0.965925826289)
	I40 : dAve : 	(-0.00492613541228 0.00329153844998 0.0163624617374) : omega : 	0.0175372336349 : d : 	(-0.215200171088 0.143792157198 0.965925826289)
	I41 : dAve : 	(-0.00445435966052 0.00390636857998 0.0163624617374) : omega : 	0.0175372336349 : d : 	(-0.194590461042 0.170651254257 0.965925826289)
	I42 : dAve : 	(-0.00390636857998 0.00445435966052 0.0163624617374) : omega : 	0.0175372336349 : d : 	(-0.170651254257 0.194590461042 0.965925826289)
	I43 : dAve : 	(-0.00329153844998 0.00492613541228 0.0163624617374) : omega : 	0.0175372336349 : d : 	(-0.143792157198 0.215200171088 0.965925826289)
	I44 : dAve : 	(-0.00262038918453 0.00531362362136 0.0163624617374) : omega : 	0.0175372336349 : d : 	(-0.114472736462 0.232127746542 0.965925826289)
	I45 : dAve : 	(-0.00190440433361 0.00561019425706 0.0163624617374) : omega : 	0.0175372336349 : d : 	(-0.083194655468 0.245083551895 0.965925826289)
	I46 : dAve : 	(-0.00115583459655 0.00581077291359 0.0163624617374) : omega : 	0.0175372336349 : d : 	(-0.050493090853 0.253845909725 0.965925826289)
	I47 : dAve : 	(-0.000387488209079 0.00591192763451 0.0163624617374) : omega : 	0.0175372336349 : d : 	(-0.0169275754541 0.25826489366 0.965925826289)
	I48 : dAve : 	(0.00223973005487 0.034171677215 0.0327249234749) : omega : 	0.0479126133149 : d : 	(0.0462469961895 0.70559281129 0.707106781187)
	I49 : dAve : 	(0.00668086776241 0.0335869903436 0.0327249234749) : omega : 	0.0479126133149 : d : 	(0.137949689641 0.693519922661 0.707106781187)
	I50 : dAve : 	(0.0110076939702 0.0324276207555 0.0327249234749) : omega : 	0.0479126133149 : d : 	(0.227292025657 0.669580715876 0.707106781187)
	I51 : dAve : 	(0.0151461754823 0.0307134055855 0.0327249234749) : omega : 	0.0479126133149 : d : 	(0.312745332096 0.634184797399 0.707106781187)
	I52 : dAve : 	(0.0190255017326 0.0284736755306 0.0327249234749) : omega : 	0.0479126133149 : d : 	(0.392847479194 0.58793780121 0.707106781187)
	I53 : dAve : 	(0.0225792963734 0.025746752993 0.0327249234749) : omega : 	0.0479126133149 : d : 	(0.466227897004 0.531631026234 0.707106781187)
	I54 : dAve : 	(0.025746752993 0.0225792963734 0.0327249234749) : omega : 	0.0479126133149 : d : 	(0.531631026234 0.466227897004 0.707106781187)
	I55 : dAve : 	(0.0284736755306 0.0190255017326 0.0327249234749) : omega : 	0.0479126133149 : d : 	(0.58793780121 0.392847479194 0.707106781187)
	I56 : dAve : 	(0.0307134055855 0.0151461754823 0.0327249234749) : omega : 	0.0479126133149 : d : 	(0.634184797399 0.312745332096 0.707106781187)
	I57 : dAve : 	(0.0324276207555 0.0110076939702 0.0327249234749) : omega : 	0.0479126133149 : d : 	(0.669580715876 0.227292025657 0.707106781187)
	I58 : dAve : 	(0.0335869903436 0.00668086776241 0.0327249234749) : omega : 	0.0479126133149 : d : 	(0.693519922661 0.137949689641 0.707106781187)
	I59 : dAve : 	(0.034171677215 0.00223973005487 0.0327249234749) : omega : 	0.0479126133149 : d : 	(0.70559281129 0.0462469961895 0.707106781187)
	I60 : dAve : 	(0.034171677215 -0.00223973005487 0.0327249234749) : omega : 	0.0479126133149 : d : 	(0.70559281129 -0.0462469961895 0.707106781187)
	I61 : dAve : 	(0.0335869903436 -0.00668086776241 0.0327249234749) : omega : 	0.0479126133149 : d : 	(0.693519922661 -0.137949689641 0.707106781187)
	I62 : dAve : 	(0.0324276207555 -0.0110076939702 0.0327249234749) : omega : 	0.0479126133149 : d : 	(0.669580715876 -0.227292025657 0.707106781187)
	I63 : dAve : 	(0.0307134055855 -0.0151461754823 0.0327249234749) : omega : 	0.0479126133149 : d : 	(0.634184797399 -0.312745332096 0.707106781187)
	I64 : dAve : 	(0.0284736755306 -0.0190255017326 0.0327249234749) : omega : 	0.0479126133149 : d : 	(0.58793780121 -0.392847479194 0.707106781187)
	I65 : dAve : 	(0.025746752993 -0.0225792963734 0.0327249234749) : omega : 	0.0479126133149 : d : 	(0.531631026234 -0.466227897004 0.707106781187)
	I66 : dAve : 	(0.0225792963734 -0.025746752993 0.0327249234749) : omega : 	0.0479126133149 : d : 	(0.466227897004 -0.531631026234 0.707106781187)
	I67 : dAve : 	(0.0190255017326 -0.0284736755306 0.0327249234749) : omega : 	0.0479126133149 : d : 	(0.392847479194 -0.58793780121 0.707106781187)
	I68 : dAve : 	(0.0151461754823 -0.0307134055855 0.0327249234749) : omega : 	0.0479126133149 : d : 	(0.312745332096 -0.634184797399 0.707106781187)
	I69 : dAve : 	(0.0110076939702 -0.0324276207555 0.0327249234749) : omega : 	0.0479126133149 : d : 	(0.227292025657 -0.669580715876 0.707106781187)
	I70 : dAve : 	(0.00668086776241 -0.0335869903436 0.0327249234749) : omega : 	0.0479126133149 : d : 	(0.137949689641 -0.693519922661 0.707106781187)
	I71 : dAve : 	(0.00223973005487 -0.034171677215 0.0327249234749) : omega : 	0.0479126133149 : d : 	(0.0462469961895 -0.70559281129 0.707106781187)
	I72 : dAve : 	(-0.00223973005487 -0.034171677215 0.0327249234749) : omega : 	0.0479126133149 : d : 	(-0.0462469961895 -0.70559281129 0.707106781187)
	I73 : dAve : 	(-0.00668086776241 -0.0335869903436 0.0327249234749) : omega : 	0.0479126133149 : d : 	(-0.137949689641 -0.693519922661 0.707106781187)
	I74 : dAve : 	(-0.0110076939702 -0.0324276207555 0.0327249234749) : omega : 	0.0479126133149 : d : 	(-0.227292025657 -0.669580715876 0.707106781187)
	I75 : dAve : 	(-0.0151461754823 -0.0307134055855 0.0327249234749) : omega : 	0.0479126133149 : d : 	(-0.312745332096 -0.634184797399 0.707106781187)
	I76 : dAve : 	(-0.0190255017326 -0.0284736755306 0.0327249234749) : omega : 	0.0479126133149 : d : 	(-0.392847479194 -0.58793780121 0.707106781187)
	I77 : dAve : 	(-0.0225792963734 -0.025746752993 0.0327249234749) : omega : 	0.0479126133149 : d : 	(-0.466227897004 -0.531631026234 0.707106781187)
	I78 : dAve : 	(-0.025746752993 -0.0225792963734 0.0327249234749) : omega : 	0.0479126133149 : d : 	(-0.531631026234 -0.466227897004 0.707106781187)
	I79 : dAve : 	(-0.0284736755306 -0.0190255017326 0.0327249234749) : omega : 	0.0479126133149 : d : 	(-0.58793780121 -0.392847479194 0.707106781187)
	I80 : dAve : 	(-0.0307134055855 -0.0151461754823 0.0327249234749) : omega : 	0.0479126133149 : d : 	(-0.634184797399 -0.312745332096 0.707106781187)
	I81 : dAve : 	(-0.0324276207555 -0.0110076939702 0.0327249234749) : omega : 	0.0479126133149 : d : 	(-0.669580715876 -0.227292025657 0.707106781187)
	I82 : dAve : 	(-0.0335869903436 -0.00668086776241 0.0327249234749) : omega : 	0.0479126133149 : d : 	(-0.693519922661 -0.137949689641 0.707106781187)
	I83 : dAve : 	(-0.034171677215 -0.00223973005487 0.0327249234749) : omega : 	0.0479126133149 : d : 	(-0.70559281129 -0.0462469961895 0.707106781187)
	I84 : dAve : 	(-0.034171677215 0.00223973005487 0.0327249234749) : omega : 	0.0479126133149 : d : 	(-0.70559281129 0.0462469961895 0.707106781187)
	I85 : dAve : 	(-0.0335869903436 0.00668086776241 0.0327249234749) : omega : 	0.0479126133149 : d : 	(-0.693519922661 0.137949689641 0.707106781187)
	I86 : dAve : 	(-0.0324276207555 0.0110076939702 0.0327249234749) : omega : 	0.0479126133149 : d : 	(-0.669580715876 0.227292025657 0.707106781187)
	I87 : dAve : 	(-0.0307134055855 0.0151461754823 0.0327249234749) : omega : 	0.0479126133149 : d : 	(-0.634184797399 0.312745332096 0.707106781187)
	I88 : dAve : 	(-0.0284736755306 0.0190255017326 0.0327249234749) : omega : 	0.0479126133149 : d : 	(-0.58793780121 0.392847479194 0.707106781187)
	I89 : dAve : 	(-0.025746752993 0.0225792963734 0.0327249234749) : omega : 	0.0479126133149 : d : 	(-0.531631026234 0.466227897004 0.707106781187)
	I90 : dAve : 	(-0.0225792963734 0.025746752993 0.0327249234749) : omega : 	0.0479126133149 : d : 	(-0.466227897004 0.531631026234 0.707106781187)
	I91 : dAve : 	(-0.0190255017326 0.0284736755306 0.0327249234749) : omega : 	0.0479126133149 : d : 	(-0.392847479194 0.58793780121 0.707106781187)
	I92 : dAve : 	(-0.0151461754823 0.0307134055855 0.0327249234749) : omega : 	0.0479126133149 : d : 	(-0.312745332096 0.634184797399 0.707106781187)
	I93 : dAve : 	(-0.0110076939702 0.0324276207555 0.0327249234749) : omega : 	0.0479126133149 : d : 	(-0.227292025657 0.669580715876 0.707106781187)
	I94 : dAve : 	(-0.00668086776241 0.0335869903436 0.0327249234749) : omega : 	0.0479126133149 : d : 	(-0.137949689641 0.693519922661 0.707106781187)
	I95 : dAve : 	(-0.00223973005487 0.034171677215 0.0327249234749) : omega : 	0.0479126133149 : d : 	(-0.0462469961895 0.70559281129 0.707106781187)
	I96 : dAve : 	(0.00409197190067 0.0624314267954 0.0163624617374) : omega : 	0.0654498469498 : d : 	(0.0631745716435 0.963857704949 0.258819045103)
	I97 : dAve : 	(0.0122059009283 0.0613632077737 0.0163624617374) : omega : 	0.0654498469498 : d : 	(0.188442780494 0.947365832386 0.258819045103)
	I98 : dAve : 	(0.0201109836069 0.0592450472539 0.0163624617374) : omega : 	0.0654498469498 : d : 	(0.310486681125 0.914664267771 0.258819045103)
	I99 : dAve : 	(0.0276719617802 0.0561131875497 0.0163624617374) : omega : 	0.0654498469498 : d : 	(0.427218068558 0.866312543941 0.258819045103)
	I100 : dAve : 	(0.0347594650153 0.052021215649 0.0163624617374) : omega : 	0.0654498469498 : d : 	(0.536639636391 0.803137972298 0.258819045103)
	I101 : dAve : 	(0.0412522241668 0.0470391463256 0.0163624617374) : omega : 	0.0654498469498 : d : 	(0.636879151261 0.726221487276 0.258819045103)
	I102 : dAve : 	(0.0470391463256 0.0412522241668 0.0163624617374) : omega : 	0.0654498469498 : d : 	(0.726221487276 0.636879151261 0.258819045103)
	I103 : dAve : 	(0.052021215649 0.0347594650153 0.0163624617374) : omega : 	0.0654498469498 : d : 	(0.803137972298 0.536639636391 0.258819045103)
	I104 : dAve : 	(0.0561131875497 0.0276719617802 0.0163624617374) : omega : 	0.0654498469498 : d : 	(0.866312543941 0.427218068558 0.258819045103)
	I105 : dAve : 	(0.0592450472539 0.0201109836069 0.0163624617374) : omega : 	0.0654498469498 : d : 	(0.914664267771 0.310486681125 0.258819045103)
	I106 : dAve : 	(0.0613632077737 0.0122059009283 0.0163624617374) : omega : 	0.0654498469498 : d : 	(0.947365832386 0.188442780494 0.258819045103)
	I107 : dAve : 	(0.0624314267954 0.00409197190067 0.0163624617374) : omega : 	0.0654498469498 : d : 	(0.963857704949 0.0631745716435 0.258819045103)
	I108 : dAve : 	(0.0624314267954 -0.00409197190067 0.0163624617374) : omega : 	0.0654498469498 : d : 	(0.963857704949 -0.0631745716435 0.258819045103)
	I109 : dAve : 	(0.0613632077737 -0.0122059009283 0.0163624617374) : omega : 	0.0654498469498 : d : 	(0.947365832386 -0.188442780494 0.258819045103)
	I110 : dAve : 	(0.0592450472539 -0.0201109836069 0.0163624617374) : omega : 	0.0654498469498 : d : 	(0.914664267771 -0.310486681125 0.258819045103)
	I111 : dAve : 	(0.0561131875497 -0.0276719617802 0.0163624617374) : omega : 	0.0654498469498 : d : 	(0.866312543941 -0.427218068558 0.258819045103)
	I112 : dAve : 	(0.052021215649 -0.0347594650153 0.0163624617374) : omega : 	0.0654498469498 : d : 	(0.803137972298 -0.536639636391 0.258819045103)
	I113 : dAve : 	(0.0470391463256 -0.0412522241668 0.0163624617374) : omega : 	0.0654498469498 : d : 	(0.726221487276 -0.636879151261 0.258819045103)
	I114 : dAve : 	(0.0412522241668 -0.0470391463256 0.0163624617374) : omega : 	0.0654498469498 : d : 	(0.636879151261 -0.726221487276 0.258819045103)
	I115 : dAve : 	(0.0347594650153 -0.052021215649 0.0163624617374) : omega : 	0.0654498469498 : d : 	(0.536639636391 -0.803137972298 0.258819045103)
	I116 : dAve : 	(0.0276719617802 -0.0561131875497 0.0163624617374) : omega : 	0.0654498469498 : d : 	(0.427218068558 -0.866312543941 0.258819045103)
	I117 : dAve : 	(0.0201109836069 -0.0592450472539 0.0163624617374) : omega : 	0.0654498469498 : d : 	(0.310486681125 -0.914664267771 0.258819045103)
	I118 : dAve : 	(0.0122059009283 -0.0613632077737 0.0163624617374) : omega : 	0.0654498469498 : d : 	(0.188442780494 -0.947365832386 0.258819045103)
	I119 : dAve : 	(0.00409197190067 -0.0624314267954 0.0163624617374) : omega : 	0.0654498469498 : d : 	(0.0631745716435 -0.963857704949 0.258819045103)
	I120 : dAve : 	(-0.00409197190067 -0.0624314267954 0.0163624617374) : omega : 	0.0654498469498 : d : 	(-0.0631745716435 -0.963857704949 0.258819045103)
	I121 : dAve : 	(-0.0122059009283 -0.0613632077737 0.0163624617374) : omega : 	0.0654498469498 : d : 	(-0.188442780494 -0.947365832386 0.258819045103)
	I122 : dAve : 	(-0.0201109836069 -0.0592450472539 0.0163624617374) : omega : 	0.0654498469498 : d : 	(-0.310486681125 -0.914664267771 0.258819045103)
	I123 : dAve : 	(-0.0276719617802 -0.0561131875497 0.0163624617374) : omega : 	0.0654498469498 : d : 	(-0.427218068558 -0.866312543941 0.258819045103)
	I124 : dAve : 	(-0.0347594650153 -0.052021215649 0.0163624617374) : omega : 	0.0654498469498 : d : 	(-0.536639636391 -0.803137972298 0.258819045103)
	I125 : dAve : 	(-0.0412522241668 -0.0470391463256 0.0163624617374) : omega : 	0.0654498469498 : d : 	(-0.636879151261 -0.726221487276 0.258819045103)
	I126 : dAve : 	(-0.0470391463256 -0.0412522241668 0.0163624617374) : omega : 	0.0654498469498 : d : 	(-0.726221487276 -0.636879151261 0.258819045103)
	I127 : dAve : 	(-0.052021215649 -0.0347594650153 0.0163624617374) : omega : 	0.0654498469498 : d : 	(-0.803137972298 -0.536639636391 0.258819045103)
	I128 : dAve : 	(-0.0561131875497 -0.0276719617802 0.0163624617374) : omega : 	0.0654498469498 : d : 	(-0.866312543941 -0.427218068558 0.258819045103)
	I129 : dAve : 	(-0.0592450472539 -0.0201109836069 0.0163624617374) : omega : 	0.0654498469498 : d : 	(-0.914664267771 -0.310486681125 0.258819045103)
	I130 : dAve : 	(-0.0613632077737 -0.0122059009283 0.0163624617374) : omega : 	0.0654498469498 : d : 	(-0.947365832386 -0.188442780494 0.258819045103)
	I131 : dAve : 	(-0.0624314267954 -0.00409197190067 0.0163624617374) : omega : 	0.0654498469498 : d : 	(-0.963857704949 -0.0631745716435 0.258819045103)
	I132 : dAve : 	(-0.0624314267954 0.00409197190067 0.0163624617374) : omega : 	0.0654498469498 : d : 	(-0.963857704949 0.0631745716435 0.258819045103)
	I133 : dAve : 	(-0.0613632077737 0.0122059009283 0.0163624617374) : omega : 	0.0654498469498 : d : 	(-0.947365832386 0.188442780494 0.258819045103)
	I134 : dAve : 	(-0.0592450472539 0.0201109836069 0.0163624617374) : omega : 	0.0654498469498 : d : 	(-0.914664267771 0.310486681125 0.258819045103)
	I135 : dAve : 	(-0.0561131875497 0.0276719617802 0.0163624617374) : omega : 	0.0654498469498 : d : 	(-0.866312543941 0.427218068558 0.258819045103)
	I136 : dAve : 	(-0.052021215649 0.0347594650153 0.0163624617374) : omega : 	0.0654498469498 : d : 	(-0.803137972298 0.536639636391 0.258819045103)
	I137 : dAve : 	(-0.0470391463256 0.0412522241668 0.0163624617374) : omega : 	0.0654498469498 : d : 	(-0.726221487276 0.636879151261 0.258819045103)
	I138 : dAve : 	(-0.0412522241668 0.0470391463256 0.0163624617374) : omega : 	0.0654498469498 : d : 	(-0.636879151261 0.726221487276 0.258819045103)
	I139 : dAve : 	(-0.0347594650153 0.052021215649 0.0163624617374) : omega : 	0.0654498469498 : d : 	(-0.536639636391 0.803137972298 0.258819045103)
	I140 : dAve : 	(-0.0276719617802 0.0561131875497 0.0163624617374) : omega : 	0.0654498469498 : d : 	(-0.427218068558 0.866312543941 0.258819045103)
	I141 : dAve : 	(-0.0201109836069 0.0592450472539 0.0163624617374) : omega : 	0.0654498469498 : d : 	(-0.310486681125 0.914664267771 0.258819045103)
	I142 : dAve : 	(-0.0122059009283 0.0613632077737 0.0163624617374) : omega : 	0.0654498469498 : d : 	(-0.188442780494 0.947365832386 0.258819045103)
	I143 : dAve : 	(-0.00409197190067 0.0624314267954 0.0163624617374) : omega : 	0.0654498469498 : d : 	(-0.0631745716435 0.963857704949 0.258819045103)
	I144 : dAve : 	(0.00409197190067 0.0624314267954 -0.0163624617374) : omega : 	0.0654498469498 : d : 	(0.0631745716435 0.963857704949 -0.258819045103)
	I145 : dAve : 	(0.0122059009283 0.0613632077737 -0.0163624617374) : omega : 	0.0654498469498 : d : 	(0.188442780494 0.947365832386 -0.258819045103)
	I146 : dAve : 	(0.0201109836069 0.0592450472539 -0.0163624617374) : omega : 	0.0654498469498 : d : 	(0.310486681125 0.914664267771 -0.258819045103)
	I147 : dAve : 	(0.0276719617802 0.0561131875497 -0.0163624617374) : omega : 	0.0654498469498 : d : 	(0.427218068558 0.866312543941 -0.258819045103)
	I148 : dAve : 	(0.0347594650153 0.052021215649 -0.0163624617374) : omega : 	0.0654498469498 : d : 	(0.536639636391 0.803137972298 -0.258819045103)
	I149 : dAve : 	(0.0412522241668 0.0470391463256 -0.0163624617374) : omega : 	0.0654498469498 : d : 	(0.636879151261 0.726221487276 -0.258819045103)
	I150 : dAve : 	(0.0470391463256 0.0412522241668 -0.0163624617374) : omega : 	0.0654498469498 : d : 	(0.726221487276 0.636879151261 -0.258819045103)
	I151 : dAve : 	(0.052021215649 0.0347594650153 -0.0163624617374) : omega : 	0.0654498469498 : d : 	(0.803137972298 0.536639636391 -0.258819045103)
	I152 : dAve : 	(0.0561131875497 0.0276719617802 -0.0163624617374) : omega : 	0.0654498469498 : d : 	(0.866312543941 0.427218068558 -0.258819045103)
	I153 : dAve : 	(0.0592450472539 0.0201109836069 -0.0163624617374) : omega : 	0.0654498469498 : d : 	(0.914664267771 0.310486681125 -0.258819045103)
	I154 : dAve : 	(0.0613632077737 0.0122059009283 -0.0163624617374) : omega : 	0.0654498469498 : d : 	(0.947365832386 0.188442780494 -0.258819045103)
	I155 : dAve : 	(0.0624314267954 0.00409197190067 -0.0163624617374) : omega : 	0.0654498469498 : d : 	(0.963857704949 0.0631745716435 -0.258819045103)
	I156 : dAve : 	(0.0624314267954 -0.00409197190067 -0.0163624617374) : omega : 	0.0654498469498 : d : 	(0.963857704949 -0.0631745716435 -0.258819045103)
	I157 : dAve : 	(0.0613632077737 -0.0122059009283 -0.0163624617374) : omega : 	0.0654498469498 : d : 	(0.947365832386 -0.188442780494 -0.258819045103)
	I158 : dAve : 	(0.0592450472539 -0.0201109836069 -0.0163624617374) : omega : 	0.0654498469498 : d : 	(0.914664267771 -0.310486681125 -0.258819045103)
	I159 : dAve : 	(0.0561131875497 -0.0276719617802 -0.0163624617374) : omega : 	0.0654498469498 : d : 	(0.866312543941 -0.427218068558 -0.258819045103)
	I160 : dAve : 	(0.052021215649 -0.0347594650153 -0.0163624617374) : omega : 	0.0654498469498 : d : 	(0.803137972298 -0.536639636391 -0.258819045103)
	I161 : dAve : 	(0.0470391463256 -0.0412522241668 -0.0163624617374) : omega : 	0.0654498469498 : d : 	(0.726221487276 -0.636879151261 -0.258819045103)
	I162 : dAve : 	(0.0412522241668 -0.0470391463256 -0.0163624617374) : omega : 	0.0654498469498 : d : 	(0.636879151261 -0.726221487276 -0.258819045103)
	I163 : dAve : 	(0.0347594650153 -0.052021215649 -0.0163624617374) : omega : 	0.0654498469498 : d : 	(0.536639636391 -0.803137972298 -0.258819045103)
	I164 : dAve : 	(0.0276719617802 -0.0561131875497 -0.0163624617374) : omega : 	0.0654498469498 : d : 	(0.427218068558 -0.866312543941 -0.258819045103)
	I165 : dAve : 	(0.0201109836069 -0.0592450472539 -0.0163624617374) : omega : 	0.0654498469498 : d : 	(0.310486681125 -0.914664267771 -0.258819045103)
	I166 : dAve : 	(0.0122059009283 -0.0613632077737 -0.0163624617374) : omega : 	0.0654498469498 : d : 	(0.188442780494 -0.947365832386 -0.258819045103)
	I167 : dAve : 	(0.00409197190067 -0.0624314267954 -0.0163624617374) : omega : 	0.0654498469498 : d : 	(0.0631745716435 -0.963857704949 -0.258819045103)
	I168 : dAve : 	(-0.00409197190067 -0.0624314267954 -0.0163624617374) : omega : 	0.0654498469498 : d : 	(-0.0631745716435 -0.963857704949 -0.258819045103)
	I169 : dAve : 	(-0.0122059009283 -0.0613632077737 -0.0163624617374) : omega : 	0.0654498469498 : d : 	(-0.188442780494 -0.947365832386 -0.258819045103)
	I170 : dAve : 	(-0.0201109836069 -0.0592450472539 -0.0163624617374) : omega : 	0.0654498469498 : d : 	(-0.310486681125 -0.914664267771 -0.258819045103)
	I171 : dAve : 	(-0.0276719617802 -0.0561131875497 -0.0163624617374) : omega : 	0.0654498469498 : d : 	(-0.427218068558 -0.866312543941 -0.258819045103)
	I172 : dAve : 	(-0.0347594650153 -0.052021215649 -0.0163624617374) : omega : 	0.0654498469498 : d : 	(-0.536639636391 -0.803137972298 -0.258819045103)
	I173 : dAve : 	(-0.0412522241668 -0.0470391463256 -0.0163624617374) : omega : 	0.0654498469498 : d : 	(-0.636879151261 -0.726221487276 -0.258819045103)
	I174 : dAve : 	(-0.0470391463256 -0.0412522241668 -0.0163624617374) : omega : 	0.0654498469498 : d : 	(-0.726221487276 -0.636879151261 -0.258819045103)
	I175 : dAve : 	(-0.052021215649 -0.0347594650153 -0.0163624617374) : omega : 	0.0654498469498 : d : 	(-0.803137972298 -0.536639636391 -0.258819045103)
	I176 : dAve : 	(-0.0561131875497 -0.0276719617802 -0.0163624617374) : omega : 	0.0654498469498 : d : 	(-0.866312543941 -0.427218068558 -0.258819045103)
	I177 : dAve : 	(-0.0592450472539 -0.0201109836069 -0.0163624617374) : omega : 	0.0654498469498 : d : 	(-0.914664267771 -0.310486681125 -0.258819045103)
	I178 : dAve : 	(-0.0613632077737 -0.0122059009283 -0.0163624617374) : omega : 	0.0654498469498 : d : 	(-0.947365832386 -0.188442780494 -0.258819045103)
	I179 : dAve : 	(-0.0624314267954 -0.00409197190067 -0.0163624617374) : omega : 	0.0654498469498 : d : 	(-0.963857704949 -0.0631745716435 -0.258819045103)
	I180 : dAve : 	(-0.0624314267954 0.00409197190067 -0.0163624617374) : omega : 	0.0654498469498 : d : 	(-0.963857704949 0.0631745716435 -0.258819045103)
	I181 : dAve : 	(-0.0613632077737 0.0122059009283 -0.0163624617374) : omega : 	0.0654498469498 : d : 	(-0.947365832386 0.188442780494 -0.258819045103)
	I182 : dAve : 	(-0.0592450472539 0.0201109836069 -0.0163624617374) : omega : 	0.0654498469498 : d : 	(-0.914664267771 0.310486681125 -0.258819045103)
	I183 : dAve : 	(-0.0561131875497 0.0276719617802 -0.0163624617374) : omega : 	0.0654498469498 : d : 	(-0.866312543941 0.427218068558 -0.258819045103)
	I184 : dAve : 	(-0.052021215649 0.0347594650153 -0.0163624617374) : omega : 	0.0654498469498 : d : 	(-0.803137972298 0.536639636391 -0.258819045103)
	I185 : dAve : 	(-0.0470391463256 0.0412522241668 -0.0163624617374) : omega : 	0.0654498469498 : d : 	(-0.726221487276 0.636879151261 -0.258819045103)
	I186 : dAve : 	(-0.0412522241668 0.0470391463256 -0.0163624617374) : omega : 	0.0654498469498 : d : 	(-0.636879151261 0.726221487276 -0.258819045103)
	I187 : dAve : 	(-0.0347594650153 0.052021215649 -0.0163624617374) : omega : 	0.0654498469498 : d : 	(-0.536639636391 0.803137972298 -0.258819045103)
	I188 : dAve : 	(-0.0276719617802 0.0561131875497 -0.0163624617374) : omega : 	0.0654498469498 : d : 	(-0.427218068558 0.866312543941 -0.258819045103)
	I189 : dAve : 	(-0.0201109836069 0.0592450472539 -0.0163624617374) : omega : 	0.0654498469498 : d : 	(-0.310486681125 0.914664267771 -0.258819045103)
	I190 : dAve : 	(-0.0122059009283 0.0613632077737 -0.0163624617374) : omega : 	0.0654498469498 : d : 	(-0.188442780494 0.947365832386 -0.258819045103)
	I191 : dAve : 	(-0.00409197190067 0.0624314267954 -0.0163624617374) : omega : 	0.0654498469498 : d : 	(-0.0631745716435 0.963857704949 -0.258819045103)
	I192 : dAve : 	(0.00223973005487 0.034171677215 -0.0327249234749) : omega : 	0.0479126133149 : d : 	(0.0462469961895 0.70559281129 -0.707106781187)
	I193 : dAve : 	(0.00668086776241 0.0335869903436 -0.0327249234749) : omega : 	0.0479126133149 : d : 	(0.137949689641 0.693519922661 -0.707106781187)
	I194 : dAve : 	(0.0110076939702 0.0324276207555 -0.0327249234749) : omega : 	0.0479126133149 : d : 	(0.227292025657 0.669580715876 -0.707106781187)
	I195 : dAve : 	(0.0151461754823 0.0307134055855 -0.0327249234749) : omega : 	0.0479126133149 : d : 	(0.312745332096 0.634184797399 -0.707106781187)
	I196 : dAve : 	(0.0190255017326 0.0284736755306 -0.0327249234749) : omega : 	0.0479126133149 : d : 	(0.392847479194 0.58793780121 -0.707106781187)
	I197 : dAve : 	(0.0225792963734 0.025746752993 -0.0327249234749) : omega : 	0.0479126133149 : d : 	(0.466227897004 0.531631026234 -0.707106781187)
	I198 : dAve : 	(0.025746752993 0.0225792963734 -0.0327249234749) : omega : 	0.0479126133149 : d : 	(0.531631026234 0.466227897004 -0.707106781187)
	I199 : dAve : 	(0.0284736755306 0.0190255017326 -0.0327249234749) : omega : 	0.0479126133149 : d : 	(0.58793780121 0.392847479194 -0.707106781187)
	I200 : dAve : 	(0.0307134055855 0.0151461754823 -0.0327249234749) : omega : 	0.0479126133149 : d : 	(0.634184797399 0.312745332096 -0.707106781187)
	I201 : dAve : 	(0.0324276207555 0.0110076939702 -0.0327249234749) : omega : 	0.0479126133149 : d : 	(0.669580715876 0.227292025657 -0.707106781187)
	I202 : dAve : 	(0.0335869903436 0.00668086776241 -0.0327249234749) : omega : 	0.0479126133149 : d : 	(0.693519922661 0.137949689641 -0.707106781187)
	I203 : dAve : 	(0.034171677215 0.00223973005487 -0.0327249234749) : omega : 	0.0479126133149 : d : 	(0.70559281129 0.0462469961895 -0.707106781187)
	I204 : dAve : 	(0.034171677215 -0.00223973005487 -0.0327249234749) : omega : 	0.0479126133149 : d : 	(0.70559281129 -0.0462469961895 -0.707106781187)
	I205 : dAve : 	(0.0335869903436 -0.00668086776241 -0.0327249234749) : omega : 	0.0479126133149 : d : 	(0.693519922661 -0.137949689641 -0.707106781187)
	I206 : dAve : 	(0.0324276207555 -0.0110076939702 -0.0327249234749) : omega : 	0.0479126133149 : d : 	(0.669580715876 -0.227292025657 -0.707106781187)
	I207 : dAve : 	(0.0307134055855 -0.0151461754823 -0.0327249234749) : omega : 	0.0479126133149 : d : 	(0.634184797399 -0.312745332096 -0.707106781187)
	I208 : dAve : 	(0.0284736755306 -0.0190255017326 -0.0327249234749) : omega : 	0.0479126133149 : d : 	(0.58793780121 -0.392847479194 -0.707106781187)
	I209 : dAve : 	(0.025746752993 -0.0225792963734 -0.0327249234749) : omega : 	0.0479126133149 : d : 	(0.531631026234 -0.466227897004 -0.707106781187)
	I210 : dAve : 	(0.0225792963734 -0.025746752993 -0.0327249234749) : omega : 	0.0479126133149 : d : 	(0.466227897004 -0.531631026234 -0.707106781187)
	I211 : dAve : 	(0.0190255017326 -0.0284736755306 -0.0327249234749) : omega : 	0.0479126133149 : d : 	(0.392847479194 -0.58793780121 -0.707106781187)
	I212 : dAve : 	(0.0151461754823 -0.0307134055855 -0.0327249234749) : omega : 	0.0479126133149 : d : 	(0.312745332096 -0.634184797399 -0.707106781187)
	I213 : dAve : 	(0.0110076939702 -0.0324276207555 -0.0327249234749) : omega : 	0.0479126133149 : d : 	(0.227292025657 -0.669580715876 -0.707106781187)
	I214 : dAve : 	(0.00668086776241 -0.0335869903436 -0.0327249234749) : omega : 	0.0479126133149 : d : 	(0.137949689641 -0.693519922661 -0.707106781187)
	I215 : dAve : 	(0.00223973005487 -0.034171677215 -0.0327249234749) : omega : 	0.0479126133149 : d : 	(0.0462469961895 -0.70559281129 -0.707106781187)
	I216 : dAve : 	(-0.00223973005487 -0.034171677215 -0.0327249234749) : omega : 	0.0479126133149 : d : 	(-0.0462469961895 -0.70559281129 -0.707106781187)
	I217 : dAve : 	(-0.00668086776241 -0.0335869903436 -0.0327249234749) : omega : 	0.0479126133149 : d : 	(-0.137949689641 -0.693519922661 -0.707106781187)
	I218 : dAve : 	(-0.0110076939702 -0.0324276207555 -0.0327249234749) : omega : 	0.0479126133149 : d : 	(-0.227292025657 -0.669580715876 -0.707106781187)
	I219 : dAve : 	(-0.0151461754823 -0.0307134055855 -0.0327249234749) : omega : 	0.0479126133149 : d : 	(-0.312745332096 -0.634184797399 -0.707106781187)
	I220 : dAve : 	(-0.0190255017326 -0.0284736755306 -0.0327249234749) : omega : 	0.0479126133149 : d : 	(-0.392847479194 -0.58793780121 -0.707106781187)
	I221 : dAve : 	(-0.0225792963734 -0.025746752993 -0.0327249234749) : omega : 	0.0479126133149 : d : 	(-0.466227897004 -0.531631026234 -0.707106781187)
	I222 : dAve : 	(-0.025746752993 -0.0225792963734 -0.0327249234749) : omega : 	0.0479126133149 : d : 	(-0.531631026234 -0.466227897004 -0.707106781187)
	I223 : dAve : 	(-0.0284736755306 -0.0190255017326 -0.0327249234749) : omega : 	0.0479126133149 : d : 	(-0.58793780121 -0.392847479194 -0.707106781187)
	I224 : dAve : 	(-0.0307134055855 -0.0151461754823 -0.0327249234749) : omega : 	0.0479126133149 : d : 	(-0.634184797399 -0.312745332096 -0.707106781187)
	I225 : dAve : 	(-0.0324276207555 -0.0110076939702 -0.0327249234749) : omega : 	0.0479126133149 : d : 	(-0.669580715876 -0.227292025657 -0.707106781187)
	I226 : dAve : 	(-0.0335869903436 -0.00668086776241 -0.0327249234749) : omega : 	0.0479126133149 : d : 	(-0.693519922661 -0.137949689641 -0.707106781187)
	I227 : dAve : 	(-0.034171677215 -0.00223973005487 -0.0327249234749) : omega : 	0.0479126133149 : d : 	(-0.70559281129 -0.0462469961895 -0.707106781187)
	I228 : dAve : 	(-0.034171677215 0.00223973005487 -0.0327249234749) : omega : 	0.0479126133149 : d : 	(-0.70559281129 0.0462469961895 -0.707106781187)
	I229 : dAve : 	(-0.0335869903436 0.00668086776241 -0.0327249234749) : omega : 	0.0479126133149 : d : 	(-0.693519922661 0.137949689641 -0.707106781187)
	I230 : dAve : 	(-0.0324276207555 0.0110076939702 -0.0327249234749) : omega : 	0.0479126133149 : d : 	(-0.669580715876 0.227292025657 -0.707106781187)
	I231 : dAve : 	(-0.0307134055855 0.0151461754823 -0.0327249234749) : omega : 	0.0479126133149 : d : 	(-0.634184797399 0.312745332096 -0.707106781187)
	I232 : dAve : 	(-0.0284736755306 0.0190255017326 -0.0327249234749) : omega : 	0.0479126133149 : d : 	(-0.58793780121 0.392847479194 -0.707106781187)
	I233 : dAve : 	(-0.025746752993 0.0225792963734 -0.0327249234749) : omega : 	0.0479126133149 : d : 	(-0.531631026234 0.466227897004 -0.707106781187)
	I234 : dAve : 	(-0.0225792963734 0.025746752993 -0.0327249234749) : omega : 	0.0479126133149 : d : 	(-0.466227897004 0.531631026234 -0.707106781187)
	I235 : dAve : 	(-0.0190255017326 0.0284736755306 -0.0327249234749) : omega : 	0.0479126133149 : d : 	(-0.392847479194 0.58793780121 -0.707106781187)
	I236 : dAve : 	(-0.0151461754823 0.0307134055855 -0.0327249234749) : omega : 	0.0479126133149 : d : 	(-0.312745332096 0.634184797399 -0.707106781187)
	I237 : dAve : 	(-0.0110076939702 0.0324276207555 -0.0327249234749) : omega : 	0.0479126133149 : d : 	(-0.227292025657 0.669580715876 -0.707106781187)
	I238 : dAve : 	(-0.00668086776241 0.0335869903436 -0.0327249234749) : omega : 	0.0479126133149 : d : 	(-0.137949689641 0.693519922661 -0.707106781187)
	I239 : dAve : 	(-0.00223973005487 0.034171677215 -0.0327249234749) : omega : 	0.0479126133149 : d : 	(-0.0462469961895 0.70559281129 -0.707106781187)
	I240 : dAve : 	(0.000387488209079 0.00591192763451 -0.0163624617374) : omega : 	0.0175372336349 : d : 	(0.0169275754541 0.25826489366 -0.965925826289)
	I241 : dAve : 	(0.00115583459655 0.00581077291359 -0.0163624617374) : omega : 	0.0175372336349 : d : 	(0.050493090853 0.253845909725 -0.965925826289)
	I242 : dAve : 	(0.00190440433361 0.00561019425706 -0.0163624617374) : omega : 	0.0175372336349 : d : 	(0.083194655468 0.245083551895 -0.965925826289)
	I243 : dAve : 	(0.00262038918453 0.00531362362136 -0.0163624617374) : omega : 	0.0175372336349 : d : 	(0.114472736462 0.232127746542 -0.965925826289)
	I244 : dAve : 	(0.00329153844998 0.00492613541228 -0.0163624617374) : omega : 	0.0175372336349 : d : 	(0.143792157198 0.215200171088 -0.965925826289)
	I245 : dAve : 	(0.00390636857998 0.00445435966052 -0.0163624617374) : omega : 	0.0175372336349 : d : 	(0.170651254257 0.194590461042 -0.965925826289)
	I246 : dAve : 	(0.00445435966052 0.00390636857998 -0.0163624617374) : omega : 	0.0175372336349 : d : 	(0.194590461042 0.170651254257 -0.965925826289)
	I247 : dAve : 	(0.00492613541228 0.00329153844998 -0.0163624617374) : omega : 	0.0175372336349 : d : 	(0.215200171088 0.143792157198 -0.965925826289)
	I248 : dAve : 	(0.00531362362136 0.00262038918453 -0.0163624617374) : omega : 	0.0175372336349 : d : 	(0.232127746542 0.114472736462 -0.965925826289)
	I249 : dAve : 	(0.00561019425706 0.00190440433361 -0.0163624617374) : omega : 	0.0175372336349 : d : 	(0.245083551895 0.083194655468 -0.965925826289)
	I250 : dAve : 	(0.00581077291359 0.00115583459655 -0.0163624617374) : omega : 	0.0175372336349 : d : 	(0.253845909725 0.050493090853 -0.965925826289)
	I251 : dAve : 	(0.00591192763451 0.000387488209079 -0.0163624617374) : omega : 	0.0175372336349 : d : 	(0.25826489366 0.0169275754541 -0.965925826289)
	I252 : dAve : 	(0.00591192763451 -0.000387488209079 -0.0163624617374) : omega : 	0.0175372336349 : d : 	(0.25826489366 -0.0169275754541 -0.965925826289)
	I253 : dAve : 	(0.00581077291359 -0.00115583459655 -0.0163624617374) : omega : 	0.0175372336349 : d : 	(0.253845909725 -0.050493090853 -0.965925826289)
	I254 : dAve : 	(0.00561019425706 -0.00190440433361 -0.0163624617374) : omega : 	0.0175372336349 : d : 	(0.245083551895 -0.083194655468 -0.965925826289)
	I255 : dAve : 	(0.00531362362136 -0.00262038918453 -0.0163624617374) : omega : 	0.0175372336349 : d : 	(0.232127746542 -0.114472736462 -0.965925826289)
	I256 : dAve : 	(0.00492613541228 -0.00329153844998 -0.0163624617374) : omega : 	0.0175372336349 : d : 	(0.215200171088 -0.143792157198 -0.965925826289)
	I257 : dAve : 	(0.00445435966052 -0.00390636857998 -0.0163624617374) : omega : 	0.0175372336349 : d : 	(0.194590461042 -0.170651254257 -0.965925826289)
	I258 : dAve : 	(0.00390636857998 -0.00445435966052 -0.0163624617374) : omega : 	0.0175372336349 : d : 	(0.170651254257 -0.194590461042 -0.965925826289)
	I259 : dAve : 	(0.00329153844998 -0.00492613541228 -0.0163624617374) : omega : 	0.0175372336349 : d : 	(0.143792157198 -0.215200171088 -0.965925826289)
	I260 : dAve : 	(0.00262038918453 -0.00531362362136 -0.0163624617374) : omega : 	0.0175372336349 : d : 	(0.114472736462 -0.232127746542 -0.965925826289)
	I261 : dAve : 	(0.00190440433361 -0.00561019425706 -0.0163624617374) : omega : 	0.0175372336349 : d : 	(0.083194655468 -0.245083551895 -0.965925826289)
	I262 : dAve : 	(0.00115583459655 -0.00581077291359 -0.0163624617374) : omega : 	0.0175372336349 : d : 	(0.050493090853 -0.253845909725 -0.965925826289)
	I263 : dAve : 	(0.000387488209079 -0.00591192763451 -0.0163624617374) : omega : 	0.0175372336349 : d : 	(0.0169275754541 -0.25826489366 -0.965925826289)
	I264 : dAve : 	(-0.000387488209079 -0.00591192763451 -0.0163624617374) : omega : 	0.0175372336349 : d : 	(-0.0169275754541 -0.25826489366 -0.965925826289)
	I265 : dAve : 	(-0.00115583459655 -0.00581077291359 -0.0163624617374) : omega : 	0.0175372336349 : d : 	(-0.050493090853 -0.253845909725 -0.965925826289)
	I266 : dAve : 	(-0.00190440433361 -0.00561019425706 -0.0163624617374) : omega : 	0.0175372336349 : d : 	(-0.083194655468 -0.245083551895 -0.965925826289)
	I267 : dAve : 	(-0.00262038918453 -0.00531362362136 -0.0163624617374) : omega : 	0.0175372336349 : d : 	(-0.114472736462 -0.232127746542 -0.965925826289)
	I268 : dAve : 	(-0.00329153844998 -0.00492613541228 -0.0163624617374) : omega : 	0.0175372336349 : d : 	(-0.143792157198 -0.215200171088 -0.965925826289)
	I269 : dAve : 	(-0.00390636857998 -0.00445435966052 -0.0163624617374) : omega : 	0.0175372336349 : d : 	(-0.170651254257 -0.194590461042 -0.965925826289)
	I270 : dAve : 	(-0.00445435966052 -0.00390636857998 -0.0163624617374) : omega : 	0.0175372336349 : d : 	(-0.194590461042 -0.170651254257 -0.965925826289)
	I271 : dAve : 	(-0.00492613541228 -0.00329153844998 -0.0163624617374) : omega : 	0.0175372336349 : d : 	(-0.215200171088 -0.143792157198 -0.965925826289)
	I272 : dAve : 	(-0.00531362362136 -0.00262038918453 -0.0163624617374) : omega : 	0.0175372336349 : d : 	(-0.232127746542 -0.114472736462 -0.965925826289)
	I273 : dAve : 	(-0.00561019425706 -0.00190440433361 -0.0163624617374) : omega : 	0.0175372336349 : d : 	(-0.245083551895 -0.083194655468 -0.965925826289)
	I274 : dAve : 	(-0.00581077291359 -0.00115583459655 -0.0163624617374) : omega : 	0.0175372336349 : d : 	(-0.253845909725 -0.050493090853 -0.965925826289)
	I275 : dAve : 	(-0.00591192763451 -0.000387488209079 -0.0163624617374) : omega : 	0.0175372336349 : d : 	(-0.25826489366 -0.0169275754541 -0.965925826289)
	I276 : dAve : 	(-0.00591192763451 0.000387488209079 -0.0163624617374) : omega : 	0.0175372336349 : d : 	(-0.25826489366 0.0169275754541 -0.965925826289)
	I277 : dAve : 	(-0.00581077291359 0.00115583459655 -0.0163624617374) : omega : 	0.0175372336349 : d : 	(-0.253845909725 0.050493090853 -0.965925826289)
	I278 : dAve : 	(-0.00561019425706 0.00190440433361 -0.0163624617374) : omega : 	0.0175372336349 : d : 	(-0.245083551895 0.083194655468 -0.965925826289)
	I279 : dAve : 	(-0.00531362362136 0.00262038918453 -0.0163624617374) : omega : 	0.0175372336349 : d : 	(-0.232127746542 0.114472736462 -0.965925826289)
	I280 : dAve : 	(-0.00492613541228 0.00329153844998 -0.0163624617374) : omega : 	0.0175372336349 : d : 	(-0.215200171088 0.143792157198 -0.965925826289)
	I281 : dAve : 	(-0.00445435966052 0.00390636857998 -0.0163624617374) : omega : 	0.0175372336349 : d : 	(-0.194590461042 0.170651254257 -0.965925826289)
	I282 : dAve : 	(-0.00390636857998 0.00445435966052 -0.0163624617374) : omega : 	0.0175372336349 : d : 	(-0.170651254257 0.194590461042 -0.965925826289)
	I283 : dAve : 	(-0.00329153844998 0.00492613541228 -0.0163624617374) : omega : 	0.0175372336349 : d : 	(-0.143792157198 0.215200171088 -0.965925826289)
	I284 : dAve : 	(-0.00262038918453 0.00531362362136 -0.0163624617374) : omega : 	0.0175372336349 : d : 	(-0.114472736462 0.232127746542 -0.965925826289)
	I285 : dAve : 	(-0.00190440433361 0.00561019425706 -0.0163624617374) : omega : 	0.0175372336349 : d : 	(-0.083194655468 0.245083551895 -0.965925826289)
	I286 : dAve : 	(-0.00115583459655 0.00581077291359 -0.0163624617374) : omega : 	0.0175372336349 : d : 	(-0.050493090853 0.253845909725 -0.965925826289)
	I287 : dAve : 	(-0.000387488209079 0.00591192763451 -0.0163624617374) : omega : 	0.0175372336349 : d : 	(-0.0169275754541 0.25826489366 -0.965925826289)
Total omega : 12.5663706144

Courant Number mean: 0 max: 0

Starting time loop

Sampled set:
    data -> csv

Sampled set:
    data -> csv

Sampled surface:
    yNormal -> ensight
        sampledCuttingPlane: yNormal : plane:(0 1 0) (0 0 0) offsets:(0)

Sampled surface:
    zNormal -> ensight
        sampledCuttingPlane: zNormal : plane:(0 0 1) (0 0 0) offsets:(0)

Sampled surface:
    patchAll -> ensight
        sampledPatch: patchAll : patches:(".*WW.*")

deltaT = 1
Time = 1

PIMPLE: iteration 1
Radiation solver iter: 0
DILUPBiCGStab:  Solving for ILambda_0_0, Initial residual = 1, Final residual = 3.36715150853e-63, No Iterations 2
DILUPBiCGStab:  Solving for ILambda_1_0, Initial residual = 1, Final residual = 3.02685208807e-63, No Iterations 2
DILUPBiCGStab:  Solving for ILambda_2_0, Initial residual = 1, Final residual = 3.28129737118e-63, No Iterations 2
DILUPBiCGStab:  Solving for ILambda_3_0, Initial residual = 1, Final residual = 2.97515344537e-63, No Iterations 2
DILUPBiCGStab:  Solving for ILambda_4_0, Initial residual = 1, Final residual = 8.22462677637e-63, No Iterations 2
DILUPBiCGStab:  Solving for ILambda_5_0, Initial residual = 1, Final residual = 2.78182156833e-63, No Iterations 2
DILUPBiCGStab:  Solving for ILambda_6_0, Initial residual = 1, Final residual = 2.08683411192e-63, No Iterations 2
DILUPBiCGStab:  Solving for ILambda_7_0, Initial residual = 1, Final residual = 2.37800302649e-63, No Iterations 2
DILUPBiCGStab:  Solving for ILambda_8_0, Initial residual = 1, Final residual = 2.96222031848e-63, No Iterations 2
DILUPBiCGStab:  Solving for ILambda_9_0, Initial residual = 1, Final residual = 1.86678200278e-63, No Iterations 2
DILUPBiCGStab:  Solving for ILambda_10_0, Initial residual = 1, Final residual = 2.7732748468e-63, No Iterations 2
DILUPBiCGStab:  Solving for ILambda_11_0, Initial residual = 1, Final residual = 1.81609647234e-63, No Iterations 2
DILUPBiCGStab:  Solving for ILambda_12_0, Initial residual = 1, Final residual = 6.6172985006e-61, No Iterations 23
DILUPBiCGStab:  Solving for ILambda_13_0, Initial residual = 1, Final residual = 1.38864935917e-61, No Iterations 32
DILUPBiCGStab:  Solving for ILambda_14_0, Initial residual = 1, Final residual = 2.361134691e-63, No Iterations 37
DILUPBiCGStab:  Solving for ILambda_15_0, Initial residual = 1, Final residual = 1.60161723573e-61, No Iterations 37
DILUPBiCGStab:  Solving for ILambda_16_0, Initial residual = 1, Final residual = 5.04535492687e-61, No Iterations 38
DILUPBiCGStab:  Solving for ILambda_17_0, Initial residual = 1, Final residual = 6.37823480017e-61, No Iterations 39
DILUPBiCGStab:  Solving for ILambda_18_0, Initial residual = 1, Final residual = 7.76149495523e-61, No Iterations 39
DILUPBiCGStab:  Solving for ILambda_19_0, Initial residual = 1, Final residual = 6.41038939899e-62, No Iterations 39
DILUPBiCGStab:  Solving for ILambda_20_0, Initial residual = 1, Final residual = 1.55216419334e-62, No Iterations 38
DILUPBiCGStab:  Solving for ILambda_21_0, Initial residual = 1, Final residual = 3.93129273986e-61, No Iterations 36
DILUPBiCGStab:  Solving for ILambda_22_0, Initial residual = 1, Final residual = 3.64648322362e-61, No Iterations 31
DILUPBiCGStab:  Solving for ILambda_23_0, Initial residual = 1, Final residual = 8.44777200739e-61, No Iterations 24
DILUPBiCGStab:  Solving for ILambda_24_0, Initial residual = 1, Final residual = 4.88387777166e-61, No Iterations 18
DILUPBiCGStab:  Solving for ILambda_25_0, Initial residual = 1, Final residual = 9.53797386556e-62, No Iterations 18
DILUPBiCGStab:  Solving for ILambda_26_0, Initial residual = 1, Final residual = 2.03249037465e-61, No Iterations 18
DILUPBiCGStab:  Solving for ILambda_27_0, Initial residual = 1, Final residual = 3.6175767655e-62, No Iterations 18
DILUPBiCGStab:  Solving for ILambda_28_0, Initial residual = 1, Final residual = 6.7461433064e-62, No Iterations 19
DILUPBiCGStab:  Solving for ILambda_29_0, Initial residual = 1, Final residual = 6.22927419411e-61, No Iterations 18
DILUPBiCGStab:  Solving for ILambda_30_0, Initial residual = 1, Final residual = 1.53381066345e-61, No Iterations 19
DILUPBiCGStab:  Solving for ILambda_31_0, Initial residual = 1, Final residual = 3.59270996376e-62, No Iterations 20
DILUPBiCGStab:  Solving for ILambda_32_0, Initial residual = 1, Final residual = 4.9742520124e-61, No Iterations 20
DILUPBiCGStab:  Solving for ILambda_33_0, Initial residual = 1, Final residual = 5.87141274156e-63, No Iterations 20
DILUPBiCGStab:  Solving for ILambda_34_0, Initial residual = 1, Final residual = 4.28819735726e-61, No Iterations 18
DILUPBiCGStab:  Solving for ILambda_35_0, Initial residual = 1, Final residual = 4.27534138095e-61, No Iterations 18
DILUPBiCGStab:  Solving for ILambda_36_0, Initial residual = 1, Final residual = 7.80095992655e-62, No Iterations 24
DILUPBiCGStab:  Solving for ILambda_37_0, Initial residual = 1, Final residual = 3.48909717242e-61, No Iterations 31
DILUPBiCGStab:  Solving for ILambda_38_0, Initial residual = 1, Final residual = 3.94569782428e-61, No Iterations 36
DILUPBiCGStab:  Solving for ILambda_39_0, Initial residual = 1, Final residual = 1.61875161658e-62, No Iterations 38
DILUPBiCGStab:  Solving for ILambda_40_0, Initial residual = 1, Final residual = 6.23720927715e-62, No Iterations 39
DILUPBiCGStab:  Solving for ILambda_41_0, Initial residual = 1, Final residual = 7.71011167051e-61, No Iterations 39
DILUPBiCGStab:  Solving for ILambda_42_0, Initial residual = 1, Final residual = 2.13133927476e-61, No Iterations 39
DILUPBiCGStab:  Solving for ILambda_43_0, Initial residual = 1, Final residual = 5.14454582328e-61, No Iterations 38
DILUPBiCGStab:  Solving for ILambda_44_0, Initial residual = 1, Final residual = 1.67297385281e-61, No Iterations 37
DILUPBiCGStab:  Solving for ILambda_45_0, Initial residual = 1, Final residual = 2.35086205301e-63, No Iterations 37
DILUPBiCGStab:  Solving for ILambda_46_0, Initial residual = 1, Final residual = 1.29079330743e-61, No Iterations 32
DILUPBiCGStab:  Solving for ILambda_47_0, Initial residual = 1, Final residual = 9.9358607624e-61, No Iterations 23
DILUPBiCGStab:  Solving for ILambda_48_0, Initial residual = 1, Final residual = 2.04661732725e-62, No Iterations 2
DILUPBiCGStab:  Solving for ILambda_49_0, Initial residual = 1, Final residual = 8.66195277892e-63, No Iterations 2
DILUPBiCGStab:  Solving for ILambda_50_0, Initial residual = 1, Final residual = 6.67801581097e-63, No Iterations 2
DILUPBiCGStab:  Solving for ILambda_51_0, Initial residual = 1, Final residual = 1.60955448643e-62, No Iterations 2
DILUPBiCGStab:  Solving for ILambda_52_0, Initial residual = 1, Final residual = 7.58964968959e-63, No Iterations 2
DILUPBiCGStab:  Solving for ILambda_53_0, Initial residual = 1, Final residual = 9.23807846623e-63, No Iterations 2
DILUPBiCGStab:  Solving for ILambda_54_0, Initial residual = 1, Final residual = 9.13209086521e-63, No Iterations 2
DILUPBiCGStab:  Solving for ILambda_55_0, Initial residual = 1, Final residual = 3.10448118517e-62, No Iterations 2
DILUPBiCGStab:  Solving for ILambda_56_0, Initial residual = 1, Final residual = 1.47018981243e-62, No Iterations 2
DILUPBiCGStab:  Solving for ILambda_57_0, Initial residual = 1, Final residual = 6.00598179734e-63, No Iterations 2
DILUPBiCGStab:  Solving for ILambda_58_0, Initial residual = 1, Final residual = 9.44057626625e-63, No Iterations 2
DILUPBiCGStab:  Solving for ILambda_59_0, Initial residual = 1, Final residual = 7.04591234809e-63, No Iterations 2
DILUPBiCGStab:  Solving for ILambda_60_0, Initial residual = 1, Final residual = 8.45199687763e-62, No Iterations 27
DILUPBiCGStab:  Solving for ILambda_61_0, Initial residual = 1, Final residual = 5.06507341541e-61, No Iterations 37
DILUPBiCGStab:  Solving for ILambda_62_0, Initial residual = 1, Final residual = 8.74725921888e-61, No Iterations 41
DILUPBiCGStab:  Solving for ILambda_63_0, Initial residual = 1, Final residual = 1.68532140102e-61, No Iterations 43
DILUPBiCGStab:  Solving for ILambda_64_0, Initial residual = 1, Final residual = 5.63325412467e-61, No Iterations 44
DILUPBiCGStab:  Solving for ILambda_65_0, Initial residual = 1, Final residual = 2.48469892515e-61, No Iterations 45
DILUPBiCGStab:  Solving for ILambda_66_0, Initial residual = 1, Final residual = 3.45587474378e-61, No Iterations 45
DILUPBiCGStab:  Solving for ILambda_67_0, Initial residual = 1, Final residual = 2.27377384938e-61, No Iterations 45
DILUPBiCGStab:  Solving for ILambda_68_0, Initial residual = 1, Final residual = 1.90161802718e-61, No Iterations 43
DILUPBiCGStab:  Solving for ILambda_69_0, Initial residual = 1, Final residual = 1.12695546719e-61, No Iterations 41
DILUPBiCGStab:  Solving for ILambda_70_0, Initial residual = 1, Final residual = 9.10796489498e-62, No Iterations 37
DILUPBiCGStab:  Solving for ILambda_71_0, Initial residual = 1, Final residual = 3.55279187936e-61, No Iterations 28
DILUPBiCGStab:  Solving for ILambda_72_0, Initial residual = 1, Final residual = 1.61001947791e-61, No Iterations 22
DILUPBiCGStab:  Solving for ILambda_73_0, Initial residual = 1, Final residual = 9.81832347906e-61, No Iterations 21
DILUPBiCGStab:  Solving for ILambda_74_0, Initial residual = 1, Final residual = 1.60599849454e-61, No Iterations 22
DILUPBiCGStab:  Solving for ILambda_75_0, Initial residual = 1, Final residual = 1.33777872747e-62, No Iterations 23
DILUPBiCGStab:  Solving for ILambda_76_0, Initial residual = 1, Final residual = 1.38369605538e-62, No Iterations 22
DILUPBiCGStab:  Solving for ILambda_77_0, Initial residual = 1, Final residual = 9.5171592446e-61, No Iterations 23
DILUPBiCGStab:  Solving for ILambda_78_0, Initial residual = 1, Final residual = 6.8082993388e-62, No Iterations 22
DILUPBiCGStab:  Solving for ILambda_79_0, Initial residual = 1, Final residual = 9.53056898905e-63, No Iterations 24
DILUPBiCGStab:  Solving for ILambda_80_0, Initial residual = 1, Final residual = 1.48746718828e-62, No Iterations 22
DILUPBiCGStab:  Solving for ILambda_81_0, Initial residual = 1, Final residual = 1.482050918e-61, No Iterations 22
DILUPBiCGStab:  Solving for ILambda_82_0, Initial residual = 1, Final residual = 3.27281008686e-63, No Iterations 22
DILUPBiCGStab:  Solving for ILambda_83_0, Initial residual = 1, Final residual = 7.24634408341e-62, No Iterations 22
DILUPBiCGStab:  Solving for ILambda_84_0, Initial residual = 1, Final residual = 2.70918551912e-61, No Iterations 28
DILUPBiCGStab:  Solving for ILambda_85_0, Initial residual = 1, Final residual = 1.8279062343e-61, No Iterations 37
DILUPBiCGStab:  Solving for ILambda_86_0, Initial residual = 1, Final residual = 1.47832717115e-61, No Iterations 41
DILUPBiCGStab:  Solving for ILambda_87_0, Initial residual = 1, Final residual = 4.08877179115e-62, No Iterations 44
DILUPBiCGStab:  Solving for ILambda_88_0, Initial residual = 1, Final residual = 2.60426703255e-61, No Iterations 45
DILUPBiCGStab:  Solving for ILambda_89_0, Initial residual = 1, Final residual = 8.17515431523e-61, No Iterations 45
DILUPBiCGStab:  Solving for ILambda_90_0, Initial residual = 1, Final residual = 3.21871095624e-61, No Iterations 45
DILUPBiCGStab:  Solving for ILambda_91_0, Initial residual = 1, Final residual = 3.70855328904e-61, No Iterations 44
DILUPBiCGStab:  Solving for ILambda_92_0, Initial residual = 1, Final residual = 8.26435176897e-61, No Iterations 43
DILUPBiCGStab:  Solving for ILambda_93_0, Initial residual = 1, Final residual = 7.34363736417e-62, No Iterations 42
DILUPBiCGStab:  Solving for ILambda_94_0, Initial residual = 1, Final residual = 4.11082504329e-62, No Iterations 38
DILUPBiCGStab:  Solving for ILambda_95_0, Initial residual = 1, Final residual = 6.30331467496e-62, No Iterations 27
DILUPBiCGStab:  Solving for ILambda_96_0, Initial residual = 1, Final residual = 1.74567584267e-62, No Iterations 2
DILUPBiCGStab:  Solving for ILambda_97_0, Initial residual = 1, Final residual = 8.03436555309e-63, No Iterations 2
DILUPBiCGStab:  Solving for ILambda_98_0, Initial residual = 1, Final residual = 2.00208915122e-62, No Iterations 2
DILUPBiCGStab:  Solving for ILambda_99_0, Initial residual = 1, Final residual = 8.57521378385e-63, No Iterations 2
DILUPBiCGStab:  Solving for ILambda_100_0, Initial residual = 1, Final residual = 1.75824391887e-62, No Iterations 2
DILUPBiCGStab:  Solving for ILambda_101_0, Initial residual = 1, Final residual = 8.52434257972e-63, No Iterations 2
DILUPBiCGStab:  Solving for ILambda_102_0, Initial residual = 1, Final residual = 9.43091025092e-63, No Iterations 2
DILUPBiCGStab:  Solving for ILambda_103_0, Initial residual = 1, Final residual = 1.64246341454e-62, No Iterations 2
DILUPBiCGStab:  Solving for ILambda_104_0, Initial residual = 1, Final residual = 1.30970538823e-62, No Iterations 2
DILUPBiCGStab:  Solving for ILambda_105_0, Initial residual = 1, Final residual = 1.62078416299e-62, No Iterations 2
DILUPBiCGStab:  Solving for ILambda_106_0, Initial residual = 1, Final residual = 1.16164057024e-62, No Iterations 2
DILUPBiCGStab:  Solving for ILambda_107_0, Initial residual = 1, Final residual = 1.01869827808e-62, No Iterations 2
DILUPBiCGStab:  Solving for ILambda_108_0, Initial residual = 1, Final residual = 5.70214698602e-63, No Iterations 29
DILUPBiCGStab:  Solving for ILambda_109_0, Initial residual = 1, Final residual = 2.34587898554e-62, No Iterations 39
DILUPBiCGStab:  Solving for ILambda_110_0, Initial residual = 1, Final residual = 6.12562723524e-61, No Iterations 42
DILUPBiCGStab:  Solving for ILambda_111_0, Initial residual = 1, Final residual = 4.20098981929e-61, No Iterations 46
DILUPBiCGStab:  Solving for ILambda_112_0, Initial residual = 1, Final residual = 1.79503969205e-61, No Iterations 47
DILUPBiCGStab:  Solving for ILambda_113_0, Initial residual = 1, Final residual = 4.52553700051e-62, No Iterations 48
DILUPBiCGStab:  Solving for ILambda_114_0, Initial residual = 1, Final residual = 3.3992067176e-61, No Iterations 47
DILUPBiCGStab:  Solving for ILambda_115_0, Initial residual = 1, Final residual = 4.10830174078e-62, No Iterations 49
DILUPBiCGStab:  Solving for ILambda_116_0, Initial residual = 1, Final residual = 1.98012647888e-61, No Iterations 47
DILUPBiCGStab:  Solving for ILambda_117_0, Initial residual = 1, Final residual = 3.96459863689e-61, No Iterations 44
DILUPBiCGStab:  Solving for ILambda_118_0, Initial residual = 1, Final residual = 8.74132764632e-62, No Iterations 38
DILUPBiCGStab:  Solving for ILambda_119_0, Initial residual = 1, Final residual = 7.7621197345e-61, No Iterations 29
DILUPBiCGStab:  Solving for ILambda_120_0, Initial residual = 1, Final residual = 3.16891758761e-61, No Iterations 22
DILUPBiCGStab:  Solving for ILambda_121_0, Initial residual = 1, Final residual = 2.32292578572e-62, No Iterations 22
DILUPBiCGStab:  Solving for ILambda_122_0, Initial residual = 1, Final residual = 4.29472736097e-61, No Iterations 23
DILUPBiCGStab:  Solving for ILambda_123_0, Initial residual = 1, Final residual = 6.28885245474e-61, No Iterations 20
DILUPBiCGStab:  Solving for ILambda_124_0, Initial residual = 1, Final residual = 5.90234596239e-64, No Iterations 20
DILUPBiCGStab:  Solving for ILambda_125_0, Initial residual = 1, Final residual = 9.1664907866e-62, No Iterations 20
DILUPBiCGStab:  Solving for ILambda_126_0, Initial residual = 1, Final residual = 1.94346969392e-61, No Iterations 22
DILUPBiCGStab:  Solving for ILambda_127_0, Initial residual = 1, Final residual = 2.06649882466e-61, No Iterations 20
DILUPBiCGStab:  Solving for ILambda_128_0, Initial residual = 1, Final residual = 3.31735717545e-62, No Iterations 23
DILUPBiCGStab:  Solving for ILambda_129_0, Initial residual = 1, Final residual = 5.72958363174e-61, No Iterations 23
DILUPBiCGStab:  Solving for ILambda_130_0, Initial residual = 1, Final residual = 7.11348771438e-63, No Iterations 22
DILUPBiCGStab:  Solving for ILambda_131_0, Initial residual = 1, Final residual = 2.81464686175e-61, No Iterations 21
DILUPBiCGStab:  Solving for ILambda_132_0, Initial residual = 1, Final residual = 6.68228952143e-62, No Iterations 29
DILUPBiCGStab:  Solving for ILambda_133_0, Initial residual = 1, Final residual = 4.68550352674e-61, No Iterations 38
DILUPBiCGStab:  Solving for ILambda_134_0, Initial residual = 1, Final residual = 1.62872661849e-61, No Iterations 44
DILUPBiCGStab:  Solving for ILambda_135_0, Initial residual = 1, Final residual = 1.95782474204e-61, No Iterations 47
DILUPBiCGStab:  Solving for ILambda_136_0, Initial residual = 1, Final residual = 5.87229058627e-61, No Iterations 48
DILUPBiCGStab:  Solving for ILambda_137_0, Initial residual = 1, Final residual = 9.82952299672e-62, No Iterations 48
DILUPBiCGStab:  Solving for ILambda_138_0, Initial residual = 1, Final residual = 4.63846427824e-61, No Iterations 47
DILUPBiCGStab:  Solving for ILambda_139_0, Initial residual = 1, Final residual = 3.44622256879e-61, No Iterations 47
DILUPBiCGStab:  Solving for ILambda_140_0, Initial residual = 1, Final residual = 1.04752305113e-61, No Iterations 46
DILUPBiCGStab:  Solving for ILambda_141_0, Initial residual = 1, Final residual = 3.47581961352e-61, No Iterations 43
DILUPBiCGStab:  Solving for ILambda_142_0, Initial residual = 1, Final residual = 4.90521615175e-61, No Iterations 38
DILUPBiCGStab:  Solving for ILambda_143_0, Initial residual = 1, Final residual = 1.28092708474e-62, No Iterations 29
DILUPBiCGStab:  Solving for ILambda_144_0, Initial residual = 1, Final residual = 2.16656150493e-61, No Iterations 21
DILUPBiCGStab:  Solving for ILambda_145_0, Initial residual = 1, Final residual = 5.0902499382e-61, No Iterations 22
DILUPBiCGStab:  Solving for ILambda_146_0, Initial residual = 1, Final residual = 6.86811974874e-62, No Iterations 22
DILUPBiCGStab:  Solving for ILambda_147_0, Initial residual = 1, Final residual = 6.81934855043e-61, No Iterations 22
DILUPBiCGStab:  Solving for ILambda_148_0, Initial residual = 1, Final residual = 2.96061729453e-61, No Iterations 23
DILUPBiCGStab:  Solving for ILambda_149_0, Initial residual = 1, Final residual = 8.44523117504e-64, No Iterations 23
DILUPBiCGStab:  Solving for ILambda_150_0, Initial residual = 1, Final residual = 2.36079173494e-61, No Iterations 22
DILUPBiCGStab:  Solving for ILambda_151_0, Initial residual = 1, Final residual = 4.13567739216e-61, No Iterations 22
DILUPBiCGStab:  Solving for ILambda_152_0, Initial residual = 1, Final residual = 2.02394251202e-61, No Iterations 23
DILUPBiCGStab:  Solving for ILambda_153_0, Initial residual = 1, Final residual = 2.51795234781e-61, No Iterations 25
DILUPBiCGStab:  Solving for ILambda_154_0, Initial residual = 1, Final residual = 3.0967569245e-61, No Iterations 22
DILUPBiCGStab:  Solving for ILambda_155_0, Initial residual = 1, Final residual = 1.65449613555e-61, No Iterations 21
DILUPBiCGStab:  Solving for ILambda_156_0, Initial residual = 1, Final residual = 3.167945329e-62, No Iterations 29
DILUPBiCGStab:  Solving for ILambda_157_0, Initial residual = 1, Final residual = 1.88271490265e-61, No Iterations 39
DILUPBiCGStab:  Solving for ILambda_158_0, Initial residual = 1, Final residual = 1.79822319514e-61, No Iterations 45
DILUPBiCGStab:  Solving for ILambda_159_0, Initial residual = 1, Final residual = 1.18362053275e-61, No Iterations 48
DILUPBiCGStab:  Solving for ILambda_160_0, Initial residual = 1, Final residual = 1.80204934281e-61, No Iterations 50
DILUPBiCGStab:  Solving for ILambda_161_0, Initial residual = 1, Final residual = 4.87089187228e-61, No Iterations 48
DILUPBiCGStab:  Solving for ILambda_162_0, Initial residual = 1, Final residual = 7.82112948979e-61, No Iterations 48
DILUPBiCGStab:  Solving for ILambda_163_0, Initial residual = 1, Final residual = 7.85369709623e-61, No Iterations 47
DILUPBiCGStab:  Solving for ILambda_164_0, Initial residual = 1, Final residual = 1.90202378903e-61, No Iterations 46
DILUPBiCGStab:  Solving for ILambda_165_0, Initial residual = 1, Final residual = 1.78824518959e-61, No Iterations 43
DILUPBiCGStab:  Solving for ILambda_166_0, Initial residual = 1, Final residual = 2.11386244088e-61, No Iterations 38
DILUPBiCGStab:  Solving for ILambda_167_0, Initial residual = 1, Final residual = 5.73180599932e-61, No Iterations 29
DILUPBiCGStab:  Solving for ILambda_168_0, Initial residual = 1, Final residual = 1.23826695136e-62, No Iterations 2
DILUPBiCGStab:  Solving for ILambda_169_0, Initial residual = 1, Final residual = 6.4086455316e-63, No Iterations 2
DILUPBiCGStab:  Solving for ILambda_170_0, Initial residual = 1, Final residual = 1.64920173449e-62, No Iterations 2
DILUPBiCGStab:  Solving for ILambda_171_0, Initial residual = 1, Final residual = 9.27418811105e-63, No Iterations 2
DILUPBiCGStab:  Solving for ILambda_172_0, Initial residual = 1, Final residual = 1.87396326606e-62, No Iterations 2
DILUPBiCGStab:  Solving for ILambda_173_0, Initial residual = 1, Final residual = 1.12298474874e-62, No Iterations 2
DILUPBiCGStab:  Solving for ILambda_174_0, Initial residual = 1, Final residual = 2.24131621607e-62, No Iterations 2
DILUPBiCGStab:  Solving for ILambda_175_0, Initial residual = 1, Final residual = 1.69003119915e-62, No Iterations 2
DILUPBiCGStab:  Solving for ILambda_176_0, Initial residual = 1, Final residual = 1.01980960174e-62, No Iterations 2
DILUPBiCGStab:  Solving for ILambda_177_0, Initial residual = 1, Final residual = 1.36262171349e-62, No Iterations 2
DILUPBiCGStab:  Solving for ILambda_178_0, Initial residual = 1, Final residual = 5.01967344694e-63, No Iterations 2
DILUPBiCGStab:  Solving for ILambda_179_0, Initial residual = 1, Final residual = 1.1669024665e-62, No Iterations 2
DILUPBiCGStab:  Solving for ILambda_180_0, Initial residual = 1, Final residual = 2.93706527089e-61, No Iterations 29
DILUPBiCGStab:  Solving for ILambda_181_0, Initial residual = 1, Final residual = 2.80705648479e-61, No Iterations 38
DILUPBiCGStab:  Solving for ILambda_182_0, Initial residual = 1, Final residual = 5.42678880919e-61, No Iterations 43
DILUPBiCGStab:  Solving for ILambda_183_0, Initial residual = 1, Final residual = 9.51787707024e-61, No Iterations 46
DILUPBiCGStab:  Solving for ILambda_184_0, Initial residual = 1, Final residual = 1.56150524836e-61, No Iterations 47
DILUPBiCGStab:  Solving for ILambda_185_0, Initial residual = 1, Final residual = 2.24446664372e-61, No Iterations 48
DILUPBiCGStab:  Solving for ILambda_186_0, Initial residual = 1, Final residual = 6.35652719006e-61, No Iterations 48
DILUPBiCGStab:  Solving for ILambda_187_0, Initial residual = 1, Final residual = 9.08907253311e-61, No Iterations 49
DILUPBiCGStab:  Solving for ILambda_188_0, Initial residual = 1, Final residual = 1.80313640393e-61, No Iterations 48
DILUPBiCGStab:  Solving for ILambda_189_0, Initial residual = 1, Final residual = 9.46011800609e-61, No Iterations 44
DILUPBiCGStab:  Solving for ILambda_190_0, Initial residual = 1, Final residual = 6.16634847779e-61, No Iterations 38
DILUPBiCGStab:  Solving for ILambda_191_0, Initial residual = 1, Final residual = 2.00938853324e-62, No Iterations 29
DILUPBiCGStab:  Solving for ILambda_192_0, Initial residual = 1, Final residual = 1.77793157366e-61, No Iterations 22
DILUPBiCGStab:  Solving for ILambda_193_0, Initial residual = 1, Final residual = 7.87422469209e-62, No Iterations 21
DILUPBiCGStab:  Solving for ILambda_194_0, Initial residual = 1, Final residual = 6.33377756263e-61, No Iterations 24
DILUPBiCGStab:  Solving for ILambda_195_0, Initial residual = 1, Final residual = 6.05760951955e-62, No Iterations 21
DILUPBiCGStab:  Solving for ILambda_196_0, Initial residual = 1, Final residual = 2.69797999701e-61, No Iterations 22
DILUPBiCGStab:  Solving for ILambda_197_0, Initial residual = 1, Final residual = 3.16687716652e-61, No Iterations 23
DILUPBiCGStab:  Solving for ILambda_198_0, Initial residual = 1, Final residual = 6.98065315854e-61, No Iterations 23
DILUPBiCGStab:  Solving for ILambda_199_0, Initial residual = 1, Final residual = 1.18813563598e-61, No Iterations 22
DILUPBiCGStab:  Solving for ILambda_200_0, Initial residual = 1, Final residual = 6.08921270722e-61, No Iterations 24
DILUPBiCGStab:  Solving for ILambda_201_0, Initial residual = 1, Final residual = 1.73599933085e-61, No Iterations 23
DILUPBiCGStab:  Solving for ILambda_202_0, Initial residual = 1, Final residual = 6.70387753874e-62, No Iterations 22
DILUPBiCGStab:  Solving for ILambda_203_0, Initial residual = 1, Final residual = 2.48654410376e-62, No Iterations 21
DILUPBiCGStab:  Solving for ILambda_204_0, Initial residual = 1, Final residual = 3.1859130739e-61, No Iterations 29
DILUPBiCGStab:  Solving for ILambda_205_0, Initial residual = 1, Final residual = 5.25390618277e-61, No Iterations 37
DILUPBiCGStab:  Solving for ILambda_206_0, Initial residual = 1, Final residual = 1.19459442461e-61, No Iterations 42
DILUPBiCGStab:  Solving for ILambda_207_0, Initial residual = 1, Final residual = 1.26141155564e-61, No Iterations 45
DILUPBiCGStab:  Solving for ILambda_208_0, Initial residual = 1, Final residual = 9.68537830085e-61, No Iterations 45
DILUPBiCGStab:  Solving for ILambda_209_0, Initial residual = 1, Final residual = 1.81515355829e-61, No Iterations 46
DILUPBiCGStab:  Solving for ILambda_210_0, Initial residual = 1, Final residual = 7.86420816334e-61, No Iterations 45
DILUPBiCGStab:  Solving for ILambda_211_0, Initial residual = 1, Final residual = 4.14164469269e-61, No Iterations 44
DILUPBiCGStab:  Solving for ILambda_212_0, Initial residual = 1, Final residual = 7.72148409031e-62, No Iterations 44
DILUPBiCGStab:  Solving for ILambda_213_0, Initial residual = 1, Final residual = 1.97025913995e-61, No Iterations 41
DILUPBiCGStab:  Solving for ILambda_214_0, Initial residual = 1, Final residual = 3.28685347433e-61, No Iterations 37
DILUPBiCGStab:  Solving for ILambda_215_0, Initial residual = 1, Final residual = 9.96770974396e-62, No Iterations 27
DILUPBiCGStab:  Solving for ILambda_216_0, Initial residual = 1, Final residual = 1.0418230137e-62, No Iterations 2
DILUPBiCGStab:  Solving for ILambda_217_0, Initial residual = 1, Final residual = 1.48211770945e-62, No Iterations 2
DILUPBiCGStab:  Solving for ILambda_218_0, Initial residual = 1, Final residual = 7.31136802136e-63, No Iterations 2
DILUPBiCGStab:  Solving for ILambda_219_0, Initial residual = 1, Final residual = 4.23376985452e-62, No Iterations 2
DILUPBiCGStab:  Solving for ILambda_220_0, Initial residual = 1, Final residual = 3.33829595955e-62, No Iterations 2
DILUPBiCGStab:  Solving for ILambda_221_0, Initial residual = 1, Final residual = 4.97243927329e-63, No Iterations 2
DILUPBiCGStab:  Solving for ILambda_222_0, Initial residual = 1, Final residual = 6.95162441043e-63, No Iterations 2
DILUPBiCGStab:  Solving for ILambda_223_0, Initial residual = 1, Final residual = 4.47098353941e-61, No Iterations 2
DILUPBiCGStab:  Solving for ILambda_224_0, Initial residual = 1, Final residual = 1.18507933276e-62, No Iterations 2
DILUPBiCGStab:  Solving for ILambda_225_0, Initial residual = 1, Final residual = 2.01457501541e-62, No Iterations 2
DILUPBiCGStab:  Solving for ILambda_226_0, Initial residual = 1, Final residual = 9.54620659733e-63, No Iterations 2
DILUPBiCGStab:  Solving for ILambda_227_0, Initial residual = 1, Final residual = 6.58108616351e-63, No Iterations 2
DILUPBiCGStab:  Solving for ILambda_228_0, Initial residual = 1, Final residual = 2.12060610041e-61, No Iterations 27
DILUPBiCGStab:  Solving for ILambda_229_0, Initial residual = 1, Final residual = 1.23642377468e-61, No Iterations 37
DILUPBiCGStab:  Solving for ILambda_230_0, Initial residual = 1, Final residual = 7.68615346863e-61, No Iterations 41
DILUPBiCGStab:  Solving for ILambda_231_0, Initial residual = 1, Final residual = 7.33069623801e-61, No Iterations 43
DILUPBiCGStab:  Solving for ILambda_232_0, Initial residual = 1, Final residual = 1.96863871333e-61, No Iterations 45
DILUPBiCGStab:  Solving for ILambda_233_0, Initial residual = 1, Final residual = 2.18598050872e-61, No Iterations 46
DILUPBiCGStab:  Solving for ILambda_234_0, Initial residual = 1, Final residual = 6.84618457135e-61, No Iterations 46
DILUPBiCGStab:  Solving for ILambda_235_0, Initial residual = 1, Final residual = 2.61856392723e-61, No Iterations 45
DILUPBiCGStab:  Solving for ILambda_236_0, Initial residual = 1, Final residual = 2.41809518109e-61, No Iterations 44
DILUPBiCGStab:  Solving for ILambda_237_0, Initial residual = 1, Final residual = 3.6237590552e-61, No Iterations 42
DILUPBiCGStab:  Solving for ILambda_238_0, Initial residual = 1, Final residual = 2.45293160225e-61, No Iterations 38
DILUPBiCGStab:  Solving for ILambda_239_0, Initial residual = 1, Final residual = 4.65624401246e-62, No Iterations 29
DILUPBiCGStab:  Solving for ILambda_240_0, Initial residual = 1, Final residual = 4.09041703944e-61, No Iterations 20
DILUPBiCGStab:  Solving for ILambda_241_0, Initial residual = 1, Final residual = 9.68225333439e-61, No Iterations 20
DILUPBiCGStab:  Solving for ILambda_242_0, Initial residual = 1, Final residual = 5.48974214771e-62, No Iterations 21
DILUPBiCGStab:  Solving for ILambda_243_0, Initial residual = 1, Final residual = 7.75724434613e-62, No Iterations 23
DILUPBiCGStab:  Solving for ILambda_244_0, Initial residual = 1, Final residual = 9.37312402858e-62, No Iterations 20
DILUPBiCGStab:  Solving for ILambda_245_0, Initial residual = 1, Final residual = 4.17541586851e-62, No Iterations 22
DILUPBiCGStab:  Solving for ILambda_246_0, Initial residual = 1, Final residual = 5.38756233039e-62, No Iterations 21
DILUPBiCGStab:  Solving for ILambda_247_0, Initial residual = 1, Final residual = 2.72651428229e-62, No Iterations 21
DILUPBiCGStab:  Solving for ILambda_248_0, Initial residual = 1, Final residual = 5.25582775759e-61, No Iterations 24
DILUPBiCGStab:  Solving for ILambda_249_0, Initial residual = 1, Final residual = 1.02955102963e-61, No Iterations 22
DILUPBiCGStab:  Solving for ILambda_250_0, Initial residual = 1, Final residual = 3.47822312752e-61, No Iterations 19
DILUPBiCGStab:  Solving for ILambda_251_0, Initial residual = 1, Final residual = 1.66602527718e-61, No Iterations 20
DILUPBiCGStab:  Solving for ILambda_252_0, Initial residual = 1, Final residual = 6.85717039434e-62, No Iterations 26
DILUPBiCGStab:  Solving for ILambda_253_0, Initial residual = 1, Final residual = 1.57700007574e-62, No Iterations 33
DILUPBiCGStab:  Solving for ILambda_254_0, Initial residual = 1, Final residual = 6.60629221676e-61, No Iterations 36
DILUPBiCGStab:  Solving for ILambda_255_0, Initial residual = 1, Final residual = 7.80249169517e-61, No Iterations 38
DILUPBiCGStab:  Solving for ILambda_256_0, Initial residual = 1, Final residual = 6.8789202702e-61, No Iterations 39
DILUPBiCGStab:  Solving for ILambda_257_0, Initial residual = 1, Final residual = 3.88910037975e-63, No Iterations 40
DILUPBiCGStab:  Solving for ILambda_258_0, Initial residual = 1, Final residual = 5.79628745277e-63, No Iterations 40
DILUPBiCGStab:  Solving for ILambda_259_0, Initial residual = 1, Final residual = 2.82506707174e-63, No Iterations 39
DILUPBiCGStab:  Solving for ILambda_260_0, Initial residual = 1, Final residual = 4.31634719163e-64, No Iterations 38
DILUPBiCGStab:  Solving for ILambda_261_0, Initial residual = 1, Final residual = 5.98981451194e-62, No Iterations 37
DILUPBiCGStab:  Solving for ILambda_262_0, Initial residual = 1, Final residual = 2.82361894959e-61, No Iterations 32
DILUPBiCGStab:  Solving for ILambda_263_0, Initial residual = 1, Final residual = 4.97784872825e-62, No Iterations 24
DILUPBiCGStab:  Solving for ILambda_264_0, Initial residual = 1, Final residual = 4.3084911659e-63, No Iterations 2
DILUPBiCGStab:  Solving for ILambda_265_0, Initial residual = 1, Final residual = 2.96585633086e-63, No Iterations 2
DILUPBiCGStab:  Solving for ILambda_266_0, Initial residual = 1, Final residual = 2.85396004317e-63, No Iterations 2
DILUPBiCGStab:  Solving for ILambda_267_0, Initial residual = 1, Final residual = 5.55615619746e-63, No Iterations 2
DILUPBiCGStab:  Solving for ILambda_268_0, Initial residual = 1, Final residual = 1.50491347036e-63, No Iterations 2
DILUPBiCGStab:  Solving for ILambda_269_0, Initial residual = 1, Final residual = 2.14722427792e-63, No Iterations 2
DILUPBiCGStab:  Solving for ILambda_270_0, Initial residual = 1, Final residual = 2.2481367584e-63, No Iterations 2
DILUPBiCGStab:  Solving for ILambda_271_0, Initial residual = 1, Final residual = 2.82275799375e-63, No Iterations 2
DILUPBiCGStab:  Solving for ILambda_272_0, Initial residual = 1, Final residual = 2.05060359169e-63, No Iterations 2
DILUPBiCGStab:  Solving for ILambda_273_0, Initial residual = 1, Final residual = 3.73358966103e-63, No Iterations 2
DILUPBiCGStab:  Solving for ILambda_274_0, Initial residual = 1, Final residual = 1.3899010427e-63, No Iterations 2
DILUPBiCGStab:  Solving for ILambda_275_0, Initial residual = 1, Final residual = 2.73535228374e-63, No Iterations 2
DILUPBiCGStab:  Solving for ILambda_276_0, Initial residual = 1, Final residual = 3.44627728381e-62, No Iterations 24
DILUPBiCGStab:  Solving for ILambda_277_0, Initial residual = 1, Final residual = 2.82575785942e-61, No Iterations 32
DILUPBiCGStab:  Solving for ILambda_278_0, Initial residual = 1, Final residual = 5.99470435028e-62, No Iterations 37
DILUPBiCGStab:  Solving for ILambda_279_0, Initial residual = 1, Final residual = 5.99860229066e-64, No Iterations 38
DILUPBiCGStab:  Solving for ILambda_280_0, Initial residual = 1, Final residual = 2.87620729701e-62, No Iterations 39
DILUPBiCGStab:  Solving for ILambda_281_0, Initial residual = 1, Final residual = 1.09954311244e-62, No Iterations 40
DILUPBiCGStab:  Solving for ILambda_282_0, Initial residual = 1, Final residual = 1.09403495485e-62, No Iterations 40
DILUPBiCGStab:  Solving for ILambda_283_0, Initial residual = 1, Final residual = 3.0427336928e-61, No Iterations 39
DILUPBiCGStab:  Solving for ILambda_284_0, Initial residual = 1, Final residual = 1.25035589713e-61, No Iterations 39
DILUPBiCGStab:  Solving for ILambda_285_0, Initial residual = 1, Final residual = 6.49689837187e-61, No Iterations 36
[...]
DILUPBiCGStab:  Solving for ILambda_140_0, Initial residual = 5.96775301887e-16, Final residual = 1.28113758121e-61, No Iterations 37
DILUPBiCGStab:  Solving for ILambda_141_0, Initial residual = 5.89269925715e-16, Final residual = 7.84905029727e-61, No Iterations 33
DILUPBiCGStab:  Solving for ILambda_142_0, Initial residual = 5.39807865137e-16, Final residual = 3.19911724572e-61, No Iterations 30
DILUPBiCGStab:  Solving for ILambda_143_0, Initial residual = 5.37972311182e-16, Final residual = 8.42442105614e-61, No Iterations 23
DILUPBiCGStab:  Solving for ILambda_144_0, Initial residual = 5.01318338203e-16, Final residual = 8.37161249545e-62, No Iterations 14
DILUPBiCGStab:  Solving for ILambda_145_0, Initial residual = 4.71680260341e-16, Final residual = 4.18122910923e-62, No Iterations 15
DILUPBiCGStab:  Solving for ILambda_146_0, Initial residual = 5.35737014366e-16, Final residual = 8.58775417395e-62, No Iterations 14
DILUPBiCGStab:  Solving for ILambda_147_0, Initial residual = 5.85517237629e-16, Final residual = 7.70099904088e-62, No Iterations 13
DILUPBiCGStab:  Solving for ILambda_148_0, Initial residual = 7.03172167143e-16, Final residual = 3.07041462942e-62, No Iterations 16
DILUPBiCGStab:  Solving for ILambda_149_0, Initial residual = 7.00365809096e-16, Final residual = 5.85686290541e-63, No Iterations 15
DILUPBiCGStab:  Solving for ILambda_150_0, Initial residual = 7.43154611294e-16, Final residual = 5.72847950253e-62, No Iterations 16
DILUPBiCGStab:  Solving for ILambda_151_0, Initial residual = 6.98350778754e-16, Final residual = 1.17686248436e-62, No Iterations 15
DILUPBiCGStab:  Solving for ILambda_152_0, Initial residual = 6.53759054671e-16, Final residual = 8.96313698559e-61, No Iterations 14
DILUPBiCGStab:  Solving for ILambda_153_0, Initial residual = 6.07135984211e-16, Final residual = 6.53342076276e-62, No Iterations 16
DILUPBiCGStab:  Solving for ILambda_154_0, Initial residual = 5.51857257101e-16, Final residual = 7.04226772508e-62, No Iterations 14
DILUPBiCGStab:  Solving for ILambda_155_0, Initial residual = 4.94065860576e-16, Final residual = 8.47714867874e-61, No Iterations 13
DILUPBiCGStab:  Solving for ILambda_156_0, Initial residual = 5.00730960937e-16, Final residual = 2.66131714672e-63, No Iterations 25
DILUPBiCGStab:  Solving for ILambda_157_0, Initial residual = 4.63481452675e-16, Final residual = 4.86664290529e-63, No Iterations 31
DILUPBiCGStab:  Solving for ILambda_158_0, Initial residual = 5.07518431563e-16, Final residual = 2.06773734421e-61, No Iterations 34
DILUPBiCGStab:  Solving for ILambda_159_0, Initial residual = 5.79007139601e-16, Final residual = 7.63831928177e-61, No Iterations 37
DILUPBiCGStab:  Solving for ILambda_160_0, Initial residual = 6.69773243177e-16, Final residual = 1.94009113441e-61, No Iterations 40
DILUPBiCGStab:  Solving for ILambda_161_0, Initial residual = 7.27222002963e-16, Final residual = 3.59735158598e-61, No Iterations 39
DILUPBiCGStab:  Solving for ILambda_162_0, Initial residual = 7.33413938305e-16, Final residual = 2.60644761101e-61, No Iterations 39
DILUPBiCGStab:  Solving for ILambda_163_0, Initial residual = 6.61337853001e-16, Final residual = 6.06859092859e-61, No Iterations 39
DILUPBiCGStab:  Solving for ILambda_164_0, Initial residual = 7.2113612185e-16, Final residual = 9.80661710585e-61, No Iterations 37
DILUPBiCGStab:  Solving for ILambda_165_0, Initial residual = 5.99663240109e-16, Final residual = 3.97511590859e-61, No Iterations 33
DILUPBiCGStab:  Solving for ILambda_166_0, Initial residual = 5.28729277266e-16, Final residual = 3.85225946127e-61, No Iterations 30
DILUPBiCGStab:  Solving for ILambda_167_0, Initial residual = 5.13114831621e-16, Final residual = 2.40400136535e-64, No Iterations 24
DILUPBiCGStab:  Solving for ILambda_168_0, Initial residual = 5.17308052657e-16, Final residual = 3.80668197165e-63, No Iterations 2
DILUPBiCGStab:  Solving for ILambda_169_0, Initial residual = 5.56384956857e-16, Final residual = 3.5817131261e-63, No Iterations 2
DILUPBiCGStab:  Solving for ILambda_170_0, Initial residual = 5.98831122316e-16, Final residual = 3.74079497795e-63, No Iterations 2
DILUPBiCGStab:  Solving for ILambda_171_0, Initial residual = 6.32442154739e-16, Final residual = 4.53573010722e-63, No Iterations 2
DILUPBiCGStab:  Solving for ILambda_172_0, Initial residual = 7.05872470961e-16, Final residual = 4.24783114357e-63, No Iterations 2
DILUPBiCGStab:  Solving for ILambda_173_0, Initial residual = 7.5610138519e-16, Final residual = 4.52946712745e-63, No Iterations 2
DILUPBiCGStab:  Solving for ILambda_174_0, Initial residual = 7.06590376508e-16, Final residual = 4.00897643014e-63, No Iterations 2
DILUPBiCGStab:  Solving for ILambda_175_0, Initial residual = 6.23819130159e-16, Final residual = 2.97812731503e-63, No Iterations 2
DILUPBiCGStab:  Solving for ILambda_176_0, Initial residual = 5.78713450968e-16, Final residual = 4.47003724591e-63, No Iterations 2
DILUPBiCGStab:  Solving for ILambda_177_0, Initial residual = 5.14183531924e-16, Final residual = 3.13332662921e-63, No Iterations 2
DILUPBiCGStab:  Solving for ILambda_178_0, Initial residual = 5.04695757481e-16, Final residual = 3.90875353538e-63, No Iterations 2
DILUPBiCGStab:  Solving for ILambda_179_0, Initial residual = 4.84455715869e-16, Final residual = 4.61419797938e-63, No Iterations 2
DILUPBiCGStab:  Solving for ILambda_180_0, Initial residual = 5.1190744502e-16, Final residual = 1.80632845797e-63, No Iterations 23
DILUPBiCGStab:  Solving for ILambda_181_0, Initial residual = 5.49303797599e-16, Final residual = 5.9338961488e-62, No Iterations 30
DILUPBiCGStab:  Solving for ILambda_182_0, Initial residual = 5.99059546809e-16, Final residual = 2.26329683637e-61, No Iterations 34
DILUPBiCGStab:  Solving for ILambda_183_0, Initial residual = 6.44719971194e-16, Final residual = 1.13876148844e-61, No Iterations 38
DILUPBiCGStab:  Solving for ILambda_184_0, Initial residual = 7.04314289604e-16, Final residual = 5.19676277882e-61, No Iterations 37
DILUPBiCGStab:  Solving for ILambda_185_0, Initial residual = 7.75656153326e-16, Final residual = 8.41129985435e-61, No Iterations 41
DILUPBiCGStab:  Solving for ILambda_186_0, Initial residual = 7.70940819165e-16, Final residual = 5.63493171467e-61, No Iterations 41
DILUPBiCGStab:  Solving for ILambda_187_0, Initial residual = 6.1774956508e-16, Final residual = 5.57022330466e-61, No Iterations 39
DILUPBiCGStab:  Solving for ILambda_188_0, Initial residual = 5.42834489659e-16, Final residual = 1.98478199664e-62, No Iterations 37
DILUPBiCGStab:  Solving for ILambda_189_0, Initial residual = 5.09084770938e-16, Final residual = 6.37836877284e-61, No Iterations 33
DILUPBiCGStab:  Solving for ILambda_190_0, Initial residual = 4.63285660253e-16, Final residual = 1.63169120915e-63, No Iterations 31
DILUPBiCGStab:  Solving for ILambda_191_0, Initial residual = 4.99319623896e-16, Final residual = 1.35317511491e-61, No Iterations 23
DILUPBiCGStab:  Solving for ILambda_192_0, Initial residual = 1.79500860775e-16, Final residual = 1.05684883825e-61, No Iterations 14
DILUPBiCGStab:  Solving for ILambda_193_0, Initial residual = 1.79533492845e-16, Final residual = 2.46885922239e-62, No Iterations 12
DILUPBiCGStab:  Solving for ILambda_194_0, Initial residual = 2.05696255219e-16, Final residual = 1.61436258831e-61, No Iterations 14
DILUPBiCGStab:  Solving for ILambda_195_0, Initial residual = 2.03297798051e-16, Final residual = 2.79936894416e-61, No Iterations 14
DILUPBiCGStab:  Solving for ILambda_196_0, Initial residual = 2.52792490698e-16, Final residual = 1.91335608309e-61, No Iterations 14
DILUPBiCGStab:  Solving for ILambda_197_0, Initial residual = 1.91517620668e-16, Final residual = 2.04149475401e-61, No Iterations 15
DILUPBiCGStab:  Solving for ILambda_198_0, Initial residual = 2.20086998227e-16, Final residual = 5.5922048048e-62, No Iterations 14
DILUPBiCGStab:  Solving for ILambda_199_0, Initial residual = 2.76675087159e-16, Final residual = 1.27162528956e-61, No Iterations 12
DILUPBiCGStab:  Solving for ILambda_200_0, Initial residual = 1.90873137279e-16, Final residual = 3.15045768062e-61, No Iterations 13
DILUPBiCGStab:  Solving for ILambda_201_0, Initial residual = 2.14527309247e-16, Final residual = 1.44292719256e-61, No Iterations 12
DILUPBiCGStab:  Solving for ILambda_202_0, Initial residual = 1.79684416171e-16, Final residual = 6.68347064928e-61, No Iterations 12
DILUPBiCGStab:  Solving for ILambda_203_0, Initial residual = 1.7948454474e-16, Final residual = 1.21603811057e-61, No Iterations 13
DILUPBiCGStab:  Solving for ILambda_204_0, Initial residual = 1.75715540619e-16, Final residual = 5.2662426973e-61, No Iterations 22
DILUPBiCGStab:  Solving for ILambda_205_0, Initial residual = 1.76302917884e-16, Final residual = 1.07510241336e-62, No Iterations 29
DILUPBiCGStab:  Solving for ILambda_206_0, Initial residual = 1.98468251645e-16, Final residual = 3.42304814444e-62, No Iterations 31
DILUPBiCGStab:  Solving for ILambda_207_0, Initial residual = 2.0720956748e-16, Final residual = 5.54071809084e-61, No Iterations 34
DILUPBiCGStab:  Solving for ILambda_208_0, Initial residual = 2.89421989625e-16, Final residual = 2.01982319791e-61, No Iterations 35
DILUPBiCGStab:  Solving for ILambda_209_0, Initial residual = 1.92737244296e-16, Final residual = 5.40293175868e-61, No Iterations 38
DILUPBiCGStab:  Solving for ILambda_210_0, Initial residual = 2.21824655971e-16, Final residual = 9.78119569421e-61, No Iterations 38
DILUPBiCGStab:  Solving for ILambda_211_0, Initial residual = 2.93725343897e-16, Final residual = 5.57270395664e-62, No Iterations 36
DILUPBiCGStab:  Solving for ILambda_212_0, Initial residual = 1.85231868124e-16, Final residual = 2.66292625943e-61, No Iterations 34
DILUPBiCGStab:  Solving for ILambda_213_0, Initial residual = 2.1690945038e-16, Final residual = 3.44606419224e-61, No Iterations 32
DILUPBiCGStab:  Solving for ILambda_214_0, Initial residual = 1.81254834554e-16, Final residual = 5.66298719538e-61, No Iterations 29
DILUPBiCGStab:  Solving for ILambda_215_0, Initial residual = 1.84203957909e-16, Final residual = 7.20851093096e-64, No Iterations 22
DILUPBiCGStab:  Solving for ILambda_216_0, Initial residual = 1.83991849452e-16, Final residual = 1.04814629163e-63, No Iterations 2
DILUPBiCGStab:  Solving for ILambda_217_0, Initial residual = 1.77155430721e-16, Final residual = 7.7284205652e-64, No Iterations 2
DILUPBiCGStab:  Solving for ILambda_218_0, Initial residual = 2.12512278906e-16, Final residual = 2.22165072516e-63, No Iterations 2
DILUPBiCGStab:  Solving for ILambda_219_0, Initial residual = 2.06459029862e-16, Final residual = 1.59234587021e-62, No Iterations 2
DILUPBiCGStab:  Solving for ILambda_220_0, Initial residual = 2.9179597274e-16, Final residual = 2.92557050354e-63, No Iterations 2
DILUPBiCGStab:  Solving for ILambda_221_0, Initial residual = 2.02363705038e-16, Final residual = 7.97965302945e-64, No Iterations 2
DILUPBiCGStab:  Solving for ILambda_222_0, Initial residual = 2.19654623295e-16, Final residual = 8.52924150448e-64, No Iterations 2
DILUPBiCGStab:  Solving for ILambda_223_0, Initial residual = 2.89491332774e-16, Final residual = 2.26452755342e-63, No Iterations 2
DILUPBiCGStab:  Solving for ILambda_224_0, Initial residual = 1.95050042279e-16, Final residual = 7.30739193975e-64, No Iterations 2
DILUPBiCGStab:  Solving for ILambda_225_0, Initial residual = 2.09395916191e-16, Final residual = 1.42387099146e-63, No Iterations 2
DILUPBiCGStab:  Solving for ILambda_226_0, Initial residual = 1.77175825765e-16, Final residual = 7.76170771266e-64, No Iterations 2
DILUPBiCGStab:  Solving for ILambda_227_0, Initial residual = 1.81560760214e-16, Final residual = 8.72947985759e-64, No Iterations 2
DILUPBiCGStab:  Solving for ILambda_228_0, Initial residual = 1.82197085585e-16, Final residual = 4.26306526251e-61, No Iterations 22
DILUPBiCGStab:  Solving for ILambda_229_0, Initial residual = 1.78411765428e-16, Final residual = 6.69684162109e-61, No Iterations 28
DILUPBiCGStab:  Solving for ILambda_230_0, Initial residual = 2.26087220156e-16, Final residual = 4.36226171017e-61, No Iterations 33
DILUPBiCGStab:  Solving for ILambda_231_0, Initial residual = 1.98611016952e-16, Final residual = 6.48850078671e-61, No Iterations 34
DILUPBiCGStab:  Solving for ILambda_232_0, Initial residual = 2.72175940464e-16, Final residual = 1.02016611715e-61, No Iterations 36
DILUPBiCGStab:  Solving for ILambda_233_0, Initial residual = 2.14368227905e-16, Final residual = 6.25443946085e-61, No Iterations 37
DILUPBiCGStab:  Solving for ILambda_234_0, Initial residual = 2.04574527802e-16, Final residual = 6.24795597875e-61, No Iterations 37
DILUPBiCGStab:  Solving for ILambda_235_0, Initial residual = 2.95238656158e-16, Final residual = 4.48914281061e-61, No Iterations 36
DILUPBiCGStab:  Solving for ILambda_236_0, Initial residual = 1.78452555516e-16, Final residual = 5.81132357697e-61, No Iterations 34
DILUPBiCGStab:  Solving for ILambda_237_0, Initial residual = 1.90636554769e-16, Final residual = 1.70867856335e-62, No Iterations 32
DILUPBiCGStab:  Solving for ILambda_238_0, Initial residual = 1.76119362489e-16, Final residual = 1.86204567697e-61, No Iterations 29
DILUPBiCGStab:  Solving for ILambda_239_0, Initial residual = 1.79851655531e-16, Final residual = 1.89370917434e-61, No Iterations 22
DILUPBiCGStab:  Solving for ILambda_240_0, Initial residual = 7.80722282242e-17, Final residual = 2.14819371196e-61, No Iterations 12
DILUPBiCGStab:  Solving for ILambda_241_0, Initial residual = 8.79271134588e-17, Final residual = 6.84245772424e-61, No Iterations 11
DILUPBiCGStab:  Solving for ILambda_242_0, Initial residual = 9.21774406171e-17, Final residual = 4.86384903787e-62, No Iterations 12
DILUPBiCGStab:  Solving for ILambda_243_0, Initial residual = 1.00873887356e-16, Final residual = 2.60341359953e-61, No Iterations 11
DILUPBiCGStab:  Solving for ILambda_244_0, Initial residual = 9.50572208222e-17, Final residual = 9.17655956227e-61, No Iterations 11
DILUPBiCGStab:  Solving for ILambda_245_0, Initial residual = 9.99316363252e-17, Final residual = 2.27197075703e-61, No Iterations 12
DILUPBiCGStab:  Solving for ILambda_246_0, Initial residual = 9.86997756709e-17, Final residual = 6.89950096494e-63, No Iterations 11
DILUPBiCGStab:  Solving for ILambda_247_0, Initial residual = 9.38008861151e-17, Final residual = 8.93095221146e-62, No Iterations 12
DILUPBiCGStab:  Solving for ILambda_248_0, Initial residual = 9.44290534687e-17, Final residual = 1.16359068903e-62, No Iterations 12
DILUPBiCGStab:  Solving for ILambda_249_0, Initial residual = 8.94241096844e-17, Final residual = 1.50443828803e-61, No Iterations 12
DILUPBiCGStab:  Solving for ILambda_250_0, Initial residual = 8.74621064568e-17, Final residual = 2.59475642148e-61, No Iterations 11
DILUPBiCGStab:  Solving for ILambda_251_0, Initial residual = 7.85331562174e-17, Final residual = 3.9666610008e-61, No Iterations 12
DILUPBiCGStab:  Solving for ILambda_252_0, Initial residual = 7.63835185855e-17, Final residual = 7.48992435141e-62, No Iterations 19
DILUPBiCGStab:  Solving for ILambda_253_0, Initial residual = 8.85104117156e-17, Final residual = 3.21698536029e-62, No Iterations 25
DILUPBiCGStab:  Solving for ILambda_254_0, Initial residual = 9.02603064862e-17, Final residual = 8.61306345348e-62, No Iterations 28
DILUPBiCGStab:  Solving for ILambda_255_0, Initial residual = 9.67663255048e-17, Final residual = 3.21839897276e-61, No Iterations 30
DILUPBiCGStab:  Solving for ILambda_256_0, Initial residual = 9.63788196699e-17, Final residual = 9.63451190487e-63, No Iterations 33
DILUPBiCGStab:  Solving for ILambda_257_0, Initial residual = 1.0146534363e-16, Final residual = 2.08824167204e-61, No Iterations 33
DILUPBiCGStab:  Solving for ILambda_258_0, Initial residual = 9.81246354316e-17, Final residual = 1.3231082178e-61, No Iterations 33
DILUPBiCGStab:  Solving for ILambda_259_0, Initial residual = 9.24017861005e-17, Final residual = 8.31437621474e-63, No Iterations 32
DILUPBiCGStab:  Solving for ILambda_260_0, Initial residual = 9.53672254902e-17, Final residual = 7.05734263799e-62, No Iterations 30
DILUPBiCGStab:  Solving for ILambda_261_0, Initial residual = 8.93751615789e-17, Final residual = 1.14079562628e-61, No Iterations 28
DILUPBiCGStab:  Solving for ILambda_262_0, Initial residual = 8.6548408488e-17, Final residual = 2.77464827401e-61, No Iterations 24
DILUPBiCGStab:  Solving for ILambda_263_0, Initial residual = 8.07970060953e-17, Final residual = 1.66675025489e-61, No Iterations 18
DILUPBiCGStab:  Solving for ILambda_264_0, Initial residual = 7.69627378336e-17, Final residual = 2.25944120023e-64, No Iterations 2
DILUPBiCGStab:  Solving for ILambda_265_0, Initial residual = 8.83961994695e-17, Final residual = 2.68678481147e-64, No Iterations 2
DILUPBiCGStab:  Solving for ILambda_266_0, Initial residual = 9.46982680487e-17, Final residual = 2.8847093621e-64, No Iterations 2
DILUPBiCGStab:  Solving for ILambda_267_0, Initial residual = 9.37519380097e-17, Final residual = 2.77358799566e-64, No Iterations 2
DILUPBiCGStab:  Solving for ILambda_268_0, Initial residual = 9.4306683205e-17, Final residual = 2.56347949613e-64, No Iterations 2
DILUPBiCGStab:  Solving for ILambda_269_0, Initial residual = 1.0574422385e-16, Final residual = 3.17006709661e-64, No Iterations 2
DILUPBiCGStab:  Solving for ILambda_270_0, Initial residual = 9.91158345674e-17, Final residual = 2.84629640906e-64, No Iterations 2
DILUPBiCGStab:  Solving for ILambda_271_0, Initial residual = 9.96542637276e-17, Final residual = 2.73722600476e-64, No Iterations 2
DILUPBiCGStab:  Solving for ILambda_272_0, Initial residual = 9.83041118183e-17, Final residual = 2.69894710516e-64, No Iterations 2
DILUPBiCGStab:  Solving for ILambda_273_0, Initial residual = 8.9954380827e-17, Final residual = 2.41107555311e-64, No Iterations 2
DILUPBiCGStab:  Solving for ILambda_274_0, Initial residual = 9.02562274774e-17, Final residual = 3.17358170081e-64, No Iterations 2
DILUPBiCGStab:  Solving for ILambda_275_0, Initial residual = 7.85046031558e-17, Final residual = 2.10939486285e-64, No Iterations 2
DILUPBiCGStab:  Solving for ILambda_276_0, Initial residual = 7.95936985025e-17, Final residual = 7.78688314123e-61, No Iterations 18
DILUPBiCGStab:  Solving for ILambda_277_0, Initial residual = 8.51860195525e-17, Final residual = 9.86038142479e-62, No Iterations 25
DILUPBiCGStab:  Solving for ILambda_278_0, Initial residual = 9.14391400262e-17, Final residual = 9.71341469852e-61, No Iterations 28
DILUPBiCGStab:  Solving for ILambda_279_0, Initial residual = 9.40701006952e-17, Final residual = 1.63147141377e-61, No Iterations 31
DILUPBiCGStab:  Solving for ILambda_280_0, Initial residual = 9.4906297497e-17, Final residual = 3.04299799599e-61, No Iterations 32
DILUPBiCGStab:  Solving for ILambda_281_0, Initial residual = 9.88099089082e-17, Final residual = 2.97069764949e-61, No Iterations 32
DILUPBiCGStab:  Solving for ILambda_282_0, Initial residual = 9.99153202901e-17, Final residual = 6.32077807659e-61, No Iterations 33
DILUPBiCGStab:  Solving for ILambda_283_0, Initial residual = 9.64971109248e-17, Final residual = 1.55513766498e-63, No Iterations 32
DILUPBiCGStab:  Solving for ILambda_284_0, Initial residual = 9.87120126973e-17, Final residual = 2.85088092938e-62, No Iterations 31
DILUPBiCGStab:  Solving for ILambda_285_0, Initial residual = 8.96525341766e-17, Final residual = 8.65481951841e-61, No Iterations 28
DILUPBiCGStab:  Solving for ILambda_286_0, Initial residual = 8.99584598358e-17, Final residual = 7.04857054797e-61, No Iterations 25
DILUPBiCGStab:  Solving for ILambda_287_0, Initial residual = 7.80314381363e-17, Final residual = 9.99133100103e-62, No Iterations 19
min/max(T) = 1000, 1000
ExecutionTime = 29.48 s  ClockTime = 29 s

writeObjects writeObjects1.writeObjects write:
    writing object a
    writing object qem
End

