/*---------------------------------------------------------------------------*\
| =========                 |                                                 |
| \\      /  F ield         | OpenFOAM: The Open Source CFD Toolbox           |
|  \\    /   O peration     | Version:  2306                                  |
|   \\  /    A nd           | Website:  www.openfoam.com                      |
|    \\/     M anipulation  |                                                 |
\*---------------------------------------------------------------------------*/
Build  : _fbf00d6b-20230626 OPENFOAM=2306 version=2306
Arch   : "LSB;label=32;scalar=64"
Exec   : fireRADFoam_MaCFP
Date   : Mar 12 2024
Time   : 20:38:39
Host   : pop-os
PID    : 186622
I/O    : uncollated
Case   : /home/rafay/Desktop/Study/Radiative_Heat_Transfer/Local_copy_RHT2324/01_Projects/02_Rafay/Case_1_q1D_SolidAngle/new_case3/th_6-ph_12/tau_1/res_4
nProcs : 1
trapFpe: Floating point exception trapping enabled (FOAM_SIGFPE).
fileModificationChecking : Monitoring run-time modified files using timeStampMaster (fileModificationSkew 5, maxFileModificationPolls 20)
allowSystemOperations : Allowing user-supplied system call operations

// * * * * * * * * * * * * * * * * * * * * * * * * * * * * * * * * * * * * * //
Create time

Create mesh for time = 0


PIMPLE: no residual control data found. Calculations will employ 10 corrector loops

Reading thermophysical properties

Selecting thermodynamics package 
{
    type            hePsiThermo;
    mixture         singleStepReactingMixture;
    transport       sutherland;
    thermo          janaf;
    energy          sensibleEnthalpy;
    equationOfState perfectGas;
    specie          specie;
}

Selecting chemistryReader foamChemistryReader
    elements not defined in "/home/rafay/Desktop/Study/Radiative_Heat_Transfer/Local_copy_RHT2324/01_Projects/02_Rafay/Case_1_q1D_SolidAngle/new_case3/th_6-ph_12/tau_1/res_4/constant/reactions"
Fuel heat of combustion :47168962.4726
stoichiometric air-fuel ratio :14.6914056505
stoichiometric oxygen-fuel ratio :3.42181919285
Maximum products mass concentrations:
    H2O: 0.0818486943001
    CO2: 0.199950099979
    N2: 0.718201205721
Creating component thermo properties:
    multi-component carrier - 6 species
    no liquid components
    no solid components
Creating field rho


Reading field U

Reading/calculating face flux field phi

Selecting radiationModel fvDOM
Selecting absorptionEmissionModel constantAbsorptionEmission
Selecting scatterModel none
Selecting sootModel none
fvDOM : Allocated 288 rays with average orientation:
	I0 : dAve : 	(0.000387488209079 0.00591192763451 0.0163624617374) : omega : 	0.0175372336349 : d : 	(0.0169275754541 0.25826489366 0.965925826289)
	I1 : dAve : 	(0.00115583459655 0.00581077291359 0.0163624617374) : omega : 	0.0175372336349 : d : 	(0.050493090853 0.253845909725 0.965925826289)
	I2 : dAve : 	(0.00190440433361 0.00561019425706 0.0163624617374) : omega : 	0.0175372336349 : d : 	(0.083194655468 0.245083551895 0.965925826289)
	I3 : dAve : 	(0.00262038918453 0.00531362362136 0.0163624617374) : omega : 	0.0175372336349 : d : 	(0.114472736462 0.232127746542 0.965925826289)
	I4 : dAve : 	(0.00329153844998 0.00492613541228 0.0163624617374) : omega : 	0.0175372336349 : d : 	(0.143792157198 0.215200171088 0.965925826289)
	I5 : dAve : 	(0.00390636857998 0.00445435966052 0.0163624617374) : omega : 	0.0175372336349 : d : 	(0.170651254257 0.194590461042 0.965925826289)
	I6 : dAve : 	(0.00445435966052 0.00390636857998 0.0163624617374) : omega : 	0.0175372336349 : d : 	(0.194590461042 0.170651254257 0.965925826289)
	I7 : dAve : 	(0.00492613541228 0.00329153844998 0.0163624617374) : omega : 	0.0175372336349 : d : 	(0.215200171088 0.143792157198 0.965925826289)
	I8 : dAve : 	(0.00531362362136 0.00262038918453 0.0163624617374) : omega : 	0.0175372336349 : d : 	(0.232127746542 0.114472736462 0.965925826289)
	I9 : dAve : 	(0.00561019425706 0.00190440433361 0.0163624617374) : omega : 	0.0175372336349 : d : 	(0.245083551895 0.083194655468 0.965925826289)
	I10 : dAve : 	(0.00581077291359 0.00115583459655 0.0163624617374) : omega : 	0.0175372336349 : d : 	(0.253845909725 0.050493090853 0.965925826289)
	I11 : dAve : 	(0.00591192763451 0.000387488209079 0.0163624617374) : omega : 	0.0175372336349 : d : 	(0.25826489366 0.0169275754541 0.965925826289)
	I12 : dAve : 	(0.00591192763451 -0.000387488209079 0.0163624617374) : omega : 	0.0175372336349 : d : 	(0.25826489366 -0.0169275754541 0.965925826289)
	I13 : dAve : 	(0.00581077291359 -0.00115583459655 0.0163624617374) : omega : 	0.0175372336349 : d : 	(0.253845909725 -0.050493090853 0.965925826289)
	I14 : dAve : 	(0.00561019425706 -0.00190440433361 0.0163624617374) : omega : 	0.0175372336349 : d : 	(0.245083551895 -0.083194655468 0.965925826289)
	I15 : dAve : 	(0.00531362362136 -0.00262038918453 0.0163624617374) : omega : 	0.0175372336349 : d : 	(0.232127746542 -0.114472736462 0.965925826289)
	I16 : dAve : 	(0.00492613541228 -0.00329153844998 0.0163624617374) : omega : 	0.0175372336349 : d : 	(0.215200171088 -0.143792157198 0.965925826289)
	I17 : dAve : 	(0.00445435966052 -0.00390636857998 0.0163624617374) : omega : 	0.0175372336349 : d : 	(0.194590461042 -0.170651254257 0.965925826289)
	I18 : dAve : 	(0.00390636857998 -0.00445435966052 0.0163624617374) : omega : 	0.0175372336349 : d : 	(0.170651254257 -0.194590461042 0.965925826289)
	I19 : dAve : 	(0.00329153844998 -0.00492613541228 0.0163624617374) : omega : 	0.0175372336349 : d : 	(0.143792157198 -0.215200171088 0.965925826289)
	I20 : dAve : 	(0.00262038918453 -0.00531362362136 0.0163624617374) : omega : 	0.0175372336349 : d : 	(0.114472736462 -0.232127746542 0.965925826289)
	I21 : dAve : 	(0.00190440433361 -0.00561019425706 0.0163624617374) : omega : 	0.0175372336349 : d : 	(0.083194655468 -0.245083551895 0.965925826289)
	I22 : dAve : 	(0.00115583459655 -0.00581077291359 0.0163624617374) : omega : 	0.0175372336349 : d : 	(0.050493090853 -0.253845909725 0.965925826289)
	I23 : dAve : 	(0.000387488209079 -0.00591192763451 0.0163624617374) : omega : 	0.0175372336349 : d : 	(0.0169275754541 -0.25826489366 0.965925826289)
	I24 : dAve : 	(-0.000387488209079 -0.00591192763451 0.0163624617374) : omega : 	0.0175372336349 : d : 	(-0.0169275754541 -0.25826489366 0.965925826289)
	I25 : dAve : 	(-0.00115583459655 -0.00581077291359 0.0163624617374) : omega : 	0.0175372336349 : d : 	(-0.050493090853 -0.253845909725 0.965925826289)
	I26 : dAve : 	(-0.00190440433361 -0.00561019425706 0.0163624617374) : omega : 	0.0175372336349 : d : 	(-0.083194655468 -0.245083551895 0.965925826289)
	I27 : dAve : 	(-0.00262038918453 -0.00531362362136 0.0163624617374) : omega : 	0.0175372336349 : d : 	(-0.114472736462 -0.232127746542 0.965925826289)
	I28 : dAve : 	(-0.00329153844998 -0.00492613541228 0.0163624617374) : omega : 	0.0175372336349 : d : 	(-0.143792157198 -0.215200171088 0.965925826289)
	I29 : dAve : 	(-0.00390636857998 -0.00445435966052 0.0163624617374) : omega : 	0.0175372336349 : d : 	(-0.170651254257 -0.194590461042 0.965925826289)
	I30 : dAve : 	(-0.00445435966052 -0.00390636857998 0.0163624617374) : omega : 	0.0175372336349 : d : 	(-0.194590461042 -0.170651254257 0.965925826289)
	I31 : dAve : 	(-0.00492613541228 -0.00329153844998 0.0163624617374) : omega : 	0.0175372336349 : d : 	(-0.215200171088 -0.143792157198 0.965925826289)
	I32 : dAve : 	(-0.00531362362136 -0.00262038918453 0.0163624617374) : omega : 	0.0175372336349 : d : 	(-0.232127746542 -0.114472736462 0.965925826289)
	I33 : dAve : 	(-0.00561019425706 -0.00190440433361 0.0163624617374) : omega : 	0.0175372336349 : d : 	(-0.245083551895 -0.083194655468 0.965925826289)
	I34 : dAve : 	(-0.00581077291359 -0.00115583459655 0.0163624617374) : omega : 	0.0175372336349 : d : 	(-0.253845909725 -0.050493090853 0.965925826289)
	I35 : dAve : 	(-0.00591192763451 -0.000387488209079 0.0163624617374) : omega : 	0.0175372336349 : d : 	(-0.25826489366 -0.0169275754541 0.965925826289)
	I36 : dAve : 	(-0.00591192763451 0.000387488209079 0.0163624617374) : omega : 	0.0175372336349 : d : 	(-0.25826489366 0.0169275754541 0.965925826289)
	I37 : dAve : 	(-0.00581077291359 0.00115583459655 0.0163624617374) : omega : 	0.0175372336349 : d : 	(-0.253845909725 0.050493090853 0.965925826289)
	I38 : dAve : 	(-0.00561019425706 0.00190440433361 0.0163624617374) : omega : 	0.0175372336349 : d : 	(-0.245083551895 0.083194655468 0.965925826289)
	I39 : dAve : 	(-0.00531362362136 0.00262038918453 0.0163624617374) : omega : 	0.0175372336349 : d : 	(-0.232127746542 0.114472736462 0.965925826289)
	I40 : dAve : 	(-0.00492613541228 0.00329153844998 0.0163624617374) : omega : 	0.0175372336349 : d : 	(-0.215200171088 0.143792157198 0.965925826289)
	I41 : dAve : 	(-0.00445435966052 0.00390636857998 0.0163624617374) : omega : 	0.0175372336349 : d : 	(-0.194590461042 0.170651254257 0.965925826289)
	I42 : dAve : 	(-0.00390636857998 0.00445435966052 0.0163624617374) : omega : 	0.0175372336349 : d : 	(-0.170651254257 0.194590461042 0.965925826289)
	I43 : dAve : 	(-0.00329153844998 0.00492613541228 0.0163624617374) : omega : 	0.0175372336349 : d : 	(-0.143792157198 0.215200171088 0.965925826289)
	I44 : dAve : 	(-0.00262038918453 0.00531362362136 0.0163624617374) : omega : 	0.0175372336349 : d : 	(-0.114472736462 0.232127746542 0.965925826289)
	I45 : dAve : 	(-0.00190440433361 0.00561019425706 0.0163624617374) : omega : 	0.0175372336349 : d : 	(-0.083194655468 0.245083551895 0.965925826289)
	I46 : dAve : 	(-0.00115583459655 0.00581077291359 0.0163624617374) : omega : 	0.0175372336349 : d : 	(-0.050493090853 0.253845909725 0.965925826289)
	I47 : dAve : 	(-0.000387488209079 0.00591192763451 0.0163624617374) : omega : 	0.0175372336349 : d : 	(-0.0169275754541 0.25826489366 0.965925826289)
	I48 : dAve : 	(0.00223973005487 0.034171677215 0.0327249234749) : omega : 	0.0479126133149 : d : 	(0.0462469961895 0.70559281129 0.707106781187)
	I49 : dAve : 	(0.00668086776241 0.0335869903436 0.0327249234749) : omega : 	0.0479126133149 : d : 	(0.137949689641 0.693519922661 0.707106781187)
	I50 : dAve : 	(0.0110076939702 0.0324276207555 0.0327249234749) : omega : 	0.0479126133149 : d : 	(0.227292025657 0.669580715876 0.707106781187)
	I51 : dAve : 	(0.0151461754823 0.0307134055855 0.0327249234749) : omega : 	0.0479126133149 : d : 	(0.312745332096 0.634184797399 0.707106781187)
	I52 : dAve : 	(0.0190255017326 0.0284736755306 0.0327249234749) : omega : 	0.0479126133149 : d : 	(0.392847479194 0.58793780121 0.707106781187)
	I53 : dAve : 	(0.0225792963734 0.025746752993 0.0327249234749) : omega : 	0.0479126133149 : d : 	(0.466227897004 0.531631026234 0.707106781187)
	I54 : dAve : 	(0.025746752993 0.0225792963734 0.0327249234749) : omega : 	0.0479126133149 : d : 	(0.531631026234 0.466227897004 0.707106781187)
	I55 : dAve : 	(0.0284736755306 0.0190255017326 0.0327249234749) : omega : 	0.0479126133149 : d : 	(0.58793780121 0.392847479194 0.707106781187)
	I56 : dAve : 	(0.0307134055855 0.0151461754823 0.0327249234749) : omega : 	0.0479126133149 : d : 	(0.634184797399 0.312745332096 0.707106781187)
	I57 : dAve : 	(0.0324276207555 0.0110076939702 0.0327249234749) : omega : 	0.0479126133149 : d : 	(0.669580715876 0.227292025657 0.707106781187)
	I58 : dAve : 	(0.0335869903436 0.00668086776241 0.0327249234749) : omega : 	0.0479126133149 : d : 	(0.693519922661 0.137949689641 0.707106781187)
	I59 : dAve : 	(0.034171677215 0.00223973005487 0.0327249234749) : omega : 	0.0479126133149 : d : 	(0.70559281129 0.0462469961895 0.707106781187)
	I60 : dAve : 	(0.034171677215 -0.00223973005487 0.0327249234749) : omega : 	0.0479126133149 : d : 	(0.70559281129 -0.0462469961895 0.707106781187)
	I61 : dAve : 	(0.0335869903436 -0.00668086776241 0.0327249234749) : omega : 	0.0479126133149 : d : 	(0.693519922661 -0.137949689641 0.707106781187)
	I62 : dAve : 	(0.0324276207555 -0.0110076939702 0.0327249234749) : omega : 	0.0479126133149 : d : 	(0.669580715876 -0.227292025657 0.707106781187)
	I63 : dAve : 	(0.0307134055855 -0.0151461754823 0.0327249234749) : omega : 	0.0479126133149 : d : 	(0.634184797399 -0.312745332096 0.707106781187)
	I64 : dAve : 	(0.0284736755306 -0.0190255017326 0.0327249234749) : omega : 	0.0479126133149 : d : 	(0.58793780121 -0.392847479194 0.707106781187)
	I65 : dAve : 	(0.025746752993 -0.0225792963734 0.0327249234749) : omega : 	0.0479126133149 : d : 	(0.531631026234 -0.466227897004 0.707106781187)
	I66 : dAve : 	(0.0225792963734 -0.025746752993 0.0327249234749) : omega : 	0.0479126133149 : d : 	(0.466227897004 -0.531631026234 0.707106781187)
	I67 : dAve : 	(0.0190255017326 -0.0284736755306 0.0327249234749) : omega : 	0.0479126133149 : d : 	(0.392847479194 -0.58793780121 0.707106781187)
	I68 : dAve : 	(0.0151461754823 -0.0307134055855 0.0327249234749) : omega : 	0.0479126133149 : d : 	(0.312745332096 -0.634184797399 0.707106781187)
	I69 : dAve : 	(0.0110076939702 -0.0324276207555 0.0327249234749) : omega : 	0.0479126133149 : d : 	(0.227292025657 -0.669580715876 0.707106781187)
	I70 : dAve : 	(0.00668086776241 -0.0335869903436 0.0327249234749) : omega : 	0.0479126133149 : d : 	(0.137949689641 -0.693519922661 0.707106781187)
	I71 : dAve : 	(0.00223973005487 -0.034171677215 0.0327249234749) : omega : 	0.0479126133149 : d : 	(0.0462469961895 -0.70559281129 0.707106781187)
	I72 : dAve : 	(-0.00223973005487 -0.034171677215 0.0327249234749) : omega : 	0.0479126133149 : d : 	(-0.0462469961895 -0.70559281129 0.707106781187)
	I73 : dAve : 	(-0.00668086776241 -0.0335869903436 0.0327249234749) : omega : 	0.0479126133149 : d : 	(-0.137949689641 -0.693519922661 0.707106781187)
	I74 : dAve : 	(-0.0110076939702 -0.0324276207555 0.0327249234749) : omega : 	0.0479126133149 : d : 	(-0.227292025657 -0.669580715876 0.707106781187)
	I75 : dAve : 	(-0.0151461754823 -0.0307134055855 0.0327249234749) : omega : 	0.0479126133149 : d : 	(-0.312745332096 -0.634184797399 0.707106781187)
	I76 : dAve : 	(-0.0190255017326 -0.0284736755306 0.0327249234749) : omega : 	0.0479126133149 : d : 	(-0.392847479194 -0.58793780121 0.707106781187)
	I77 : dAve : 	(-0.0225792963734 -0.025746752993 0.0327249234749) : omega : 	0.0479126133149 : d : 	(-0.466227897004 -0.531631026234 0.707106781187)
	I78 : dAve : 	(-0.025746752993 -0.0225792963734 0.0327249234749) : omega : 	0.0479126133149 : d : 	(-0.531631026234 -0.466227897004 0.707106781187)
	I79 : dAve : 	(-0.0284736755306 -0.0190255017326 0.0327249234749) : omega : 	0.0479126133149 : d : 	(-0.58793780121 -0.392847479194 0.707106781187)
	I80 : dAve : 	(-0.0307134055855 -0.0151461754823 0.0327249234749) : omega : 	0.0479126133149 : d : 	(-0.634184797399 -0.312745332096 0.707106781187)
	I81 : dAve : 	(-0.0324276207555 -0.0110076939702 0.0327249234749) : omega : 	0.0479126133149 : d : 	(-0.669580715876 -0.227292025657 0.707106781187)
	I82 : dAve : 	(-0.0335869903436 -0.00668086776241 0.0327249234749) : omega : 	0.0479126133149 : d : 	(-0.693519922661 -0.137949689641 0.707106781187)
	I83 : dAve : 	(-0.034171677215 -0.00223973005487 0.0327249234749) : omega : 	0.0479126133149 : d : 	(-0.70559281129 -0.0462469961895 0.707106781187)
	I84 : dAve : 	(-0.034171677215 0.00223973005487 0.0327249234749) : omega : 	0.0479126133149 : d : 	(-0.70559281129 0.0462469961895 0.707106781187)
	I85 : dAve : 	(-0.0335869903436 0.00668086776241 0.0327249234749) : omega : 	0.0479126133149 : d : 	(-0.693519922661 0.137949689641 0.707106781187)
	I86 : dAve : 	(-0.0324276207555 0.0110076939702 0.0327249234749) : omega : 	0.0479126133149 : d : 	(-0.669580715876 0.227292025657 0.707106781187)
	I87 : dAve : 	(-0.0307134055855 0.0151461754823 0.0327249234749) : omega : 	0.0479126133149 : d : 	(-0.634184797399 0.312745332096 0.707106781187)
	I88 : dAve : 	(-0.0284736755306 0.0190255017326 0.0327249234749) : omega : 	0.0479126133149 : d : 	(-0.58793780121 0.392847479194 0.707106781187)
	I89 : dAve : 	(-0.025746752993 0.0225792963734 0.0327249234749) : omega : 	0.0479126133149 : d : 	(-0.531631026234 0.466227897004 0.707106781187)
	I90 : dAve : 	(-0.0225792963734 0.025746752993 0.0327249234749) : omega : 	0.0479126133149 : d : 	(-0.466227897004 0.531631026234 0.707106781187)
	I91 : dAve : 	(-0.0190255017326 0.0284736755306 0.0327249234749) : omega : 	0.0479126133149 : d : 	(-0.392847479194 0.58793780121 0.707106781187)
	I92 : dAve : 	(-0.0151461754823 0.0307134055855 0.0327249234749) : omega : 	0.0479126133149 : d : 	(-0.312745332096 0.634184797399 0.707106781187)
	I93 : dAve : 	(-0.0110076939702 0.0324276207555 0.0327249234749) : omega : 	0.0479126133149 : d : 	(-0.227292025657 0.669580715876 0.707106781187)
	I94 : dAve : 	(-0.00668086776241 0.0335869903436 0.0327249234749) : omega : 	0.0479126133149 : d : 	(-0.137949689641 0.693519922661 0.707106781187)
	I95 : dAve : 	(-0.00223973005487 0.034171677215 0.0327249234749) : omega : 	0.0479126133149 : d : 	(-0.0462469961895 0.70559281129 0.707106781187)
	I96 : dAve : 	(0.00409197190067 0.0624314267954 0.0163624617374) : omega : 	0.0654498469498 : d : 	(0.0631745716435 0.963857704949 0.258819045103)
	I97 : dAve : 	(0.0122059009283 0.0613632077737 0.0163624617374) : omega : 	0.0654498469498 : d : 	(0.188442780494 0.947365832386 0.258819045103)
	I98 : dAve : 	(0.0201109836069 0.0592450472539 0.0163624617374) : omega : 	0.0654498469498 : d : 	(0.310486681125 0.914664267771 0.258819045103)
	I99 : dAve : 	(0.0276719617802 0.0561131875497 0.0163624617374) : omega : 	0.0654498469498 : d : 	(0.427218068558 0.866312543941 0.258819045103)
	I100 : dAve : 	(0.0347594650153 0.052021215649 0.0163624617374) : omega : 	0.0654498469498 : d : 	(0.536639636391 0.803137972298 0.258819045103)
	I101 : dAve : 	(0.0412522241668 0.0470391463256 0.0163624617374) : omega : 	0.0654498469498 : d : 	(0.636879151261 0.726221487276 0.258819045103)
	I102 : dAve : 	(0.0470391463256 0.0412522241668 0.0163624617374) : omega : 	0.0654498469498 : d : 	(0.726221487276 0.636879151261 0.258819045103)
	I103 : dAve : 	(0.052021215649 0.0347594650153 0.0163624617374) : omega : 	0.0654498469498 : d : 	(0.803137972298 0.536639636391 0.258819045103)
	I104 : dAve : 	(0.0561131875497 0.0276719617802 0.0163624617374) : omega : 	0.0654498469498 : d : 	(0.866312543941 0.427218068558 0.258819045103)
	I105 : dAve : 	(0.0592450472539 0.0201109836069 0.0163624617374) : omega : 	0.0654498469498 : d : 	(0.914664267771 0.310486681125 0.258819045103)
	I106 : dAve : 	(0.0613632077737 0.0122059009283 0.0163624617374) : omega : 	0.0654498469498 : d : 	(0.947365832386 0.188442780494 0.258819045103)
	I107 : dAve : 	(0.0624314267954 0.00409197190067 0.0163624617374) : omega : 	0.0654498469498 : d : 	(0.963857704949 0.0631745716435 0.258819045103)
	I108 : dAve : 	(0.0624314267954 -0.00409197190067 0.0163624617374) : omega : 	0.0654498469498 : d : 	(0.963857704949 -0.0631745716435 0.258819045103)
	I109 : dAve : 	(0.0613632077737 -0.0122059009283 0.0163624617374) : omega : 	0.0654498469498 : d : 	(0.947365832386 -0.188442780494 0.258819045103)
	I110 : dAve : 	(0.0592450472539 -0.0201109836069 0.0163624617374) : omega : 	0.0654498469498 : d : 	(0.914664267771 -0.310486681125 0.258819045103)
	I111 : dAve : 	(0.0561131875497 -0.0276719617802 0.0163624617374) : omega : 	0.0654498469498 : d : 	(0.866312543941 -0.427218068558 0.258819045103)
	I112 : dAve : 	(0.052021215649 -0.0347594650153 0.0163624617374) : omega : 	0.0654498469498 : d : 	(0.803137972298 -0.536639636391 0.258819045103)
	I113 : dAve : 	(0.0470391463256 -0.0412522241668 0.0163624617374) : omega : 	0.0654498469498 : d : 	(0.726221487276 -0.636879151261 0.258819045103)
	I114 : dAve : 	(0.0412522241668 -0.0470391463256 0.0163624617374) : omega : 	0.0654498469498 : d : 	(0.636879151261 -0.726221487276 0.258819045103)
	I115 : dAve : 	(0.0347594650153 -0.052021215649 0.0163624617374) : omega : 	0.0654498469498 : d : 	(0.536639636391 -0.803137972298 0.258819045103)
	I116 : dAve : 	(0.0276719617802 -0.0561131875497 0.0163624617374) : omega : 	0.0654498469498 : d : 	(0.427218068558 -0.866312543941 0.258819045103)
	I117 : dAve : 	(0.0201109836069 -0.0592450472539 0.0163624617374) : omega : 	0.0654498469498 : d : 	(0.310486681125 -0.914664267771 0.258819045103)
	I118 : dAve : 	(0.0122059009283 -0.0613632077737 0.0163624617374) : omega : 	0.0654498469498 : d : 	(0.188442780494 -0.947365832386 0.258819045103)
	I119 : dAve : 	(0.00409197190067 -0.0624314267954 0.0163624617374) : omega : 	0.0654498469498 : d : 	(0.0631745716435 -0.963857704949 0.258819045103)
	I120 : dAve : 	(-0.00409197190067 -0.0624314267954 0.0163624617374) : omega : 	0.0654498469498 : d : 	(-0.0631745716435 -0.963857704949 0.258819045103)
	I121 : dAve : 	(-0.0122059009283 -0.0613632077737 0.0163624617374) : omega : 	0.0654498469498 : d : 	(-0.188442780494 -0.947365832386 0.258819045103)
	I122 : dAve : 	(-0.0201109836069 -0.0592450472539 0.0163624617374) : omega : 	0.0654498469498 : d : 	(-0.310486681125 -0.914664267771 0.258819045103)
	I123 : dAve : 	(-0.0276719617802 -0.0561131875497 0.0163624617374) : omega : 	0.0654498469498 : d : 	(-0.427218068558 -0.866312543941 0.258819045103)
	I124 : dAve : 	(-0.0347594650153 -0.052021215649 0.0163624617374) : omega : 	0.0654498469498 : d : 	(-0.536639636391 -0.803137972298 0.258819045103)
	I125 : dAve : 	(-0.0412522241668 -0.0470391463256 0.0163624617374) : omega : 	0.0654498469498 : d : 	(-0.636879151261 -0.726221487276 0.258819045103)
	I126 : dAve : 	(-0.0470391463256 -0.0412522241668 0.0163624617374) : omega : 	0.0654498469498 : d : 	(-0.726221487276 -0.636879151261 0.258819045103)
	I127 : dAve : 	(-0.052021215649 -0.0347594650153 0.0163624617374) : omega : 	0.0654498469498 : d : 	(-0.803137972298 -0.536639636391 0.258819045103)
	I128 : dAve : 	(-0.0561131875497 -0.0276719617802 0.0163624617374) : omega : 	0.0654498469498 : d : 	(-0.866312543941 -0.427218068558 0.258819045103)
	I129 : dAve : 	(-0.0592450472539 -0.0201109836069 0.0163624617374) : omega : 	0.0654498469498 : d : 	(-0.914664267771 -0.310486681125 0.258819045103)
	I130 : dAve : 	(-0.0613632077737 -0.0122059009283 0.0163624617374) : omega : 	0.0654498469498 : d : 	(-0.947365832386 -0.188442780494 0.258819045103)
	I131 : dAve : 	(-0.0624314267954 -0.00409197190067 0.0163624617374) : omega : 	0.0654498469498 : d : 	(-0.963857704949 -0.0631745716435 0.258819045103)
	I132 : dAve : 	(-0.0624314267954 0.00409197190067 0.0163624617374) : omega : 	0.0654498469498 : d : 	(-0.963857704949 0.0631745716435 0.258819045103)
	I133 : dAve : 	(-0.0613632077737 0.0122059009283 0.0163624617374) : omega : 	0.0654498469498 : d : 	(-0.947365832386 0.188442780494 0.258819045103)
	I134 : dAve : 	(-0.0592450472539 0.0201109836069 0.0163624617374) : omega : 	0.0654498469498 : d : 	(-0.914664267771 0.310486681125 0.258819045103)
	I135 : dAve : 	(-0.0561131875497 0.0276719617802 0.0163624617374) : omega : 	0.0654498469498 : d : 	(-0.866312543941 0.427218068558 0.258819045103)
	I136 : dAve : 	(-0.052021215649 0.0347594650153 0.0163624617374) : omega : 	0.0654498469498 : d : 	(-0.803137972298 0.536639636391 0.258819045103)
	I137 : dAve : 	(-0.0470391463256 0.0412522241668 0.0163624617374) : omega : 	0.0654498469498 : d : 	(-0.726221487276 0.636879151261 0.258819045103)
	I138 : dAve : 	(-0.0412522241668 0.0470391463256 0.0163624617374) : omega : 	0.0654498469498 : d : 	(-0.636879151261 0.726221487276 0.258819045103)
	I139 : dAve : 	(-0.0347594650153 0.052021215649 0.0163624617374) : omega : 	0.0654498469498 : d : 	(-0.536639636391 0.803137972298 0.258819045103)
	I140 : dAve : 	(-0.0276719617802 0.0561131875497 0.0163624617374) : omega : 	0.0654498469498 : d : 	(-0.427218068558 0.866312543941 0.258819045103)
	I141 : dAve : 	(-0.0201109836069 0.0592450472539 0.0163624617374) : omega : 	0.0654498469498 : d : 	(-0.310486681125 0.914664267771 0.258819045103)
	I142 : dAve : 	(-0.0122059009283 0.0613632077737 0.0163624617374) : omega : 	0.0654498469498 : d : 	(-0.188442780494 0.947365832386 0.258819045103)
	I143 : dAve : 	(-0.00409197190067 0.0624314267954 0.0163624617374) : omega : 	0.0654498469498 : d : 	(-0.0631745716435 0.963857704949 0.258819045103)
	I144 : dAve : 	(0.00409197190067 0.0624314267954 -0.0163624617374) : omega : 	0.0654498469498 : d : 	(0.0631745716435 0.963857704949 -0.258819045103)
	I145 : dAve : 	(0.0122059009283 0.0613632077737 -0.0163624617374) : omega : 	0.0654498469498 : d : 	(0.188442780494 0.947365832386 -0.258819045103)
	I146 : dAve : 	(0.0201109836069 0.0592450472539 -0.0163624617374) : omega : 	0.0654498469498 : d : 	(0.310486681125 0.914664267771 -0.258819045103)
	I147 : dAve : 	(0.0276719617802 0.0561131875497 -0.0163624617374) : omega : 	0.0654498469498 : d : 	(0.427218068558 0.866312543941 -0.258819045103)
	I148 : dAve : 	(0.0347594650153 0.052021215649 -0.0163624617374) : omega : 	0.0654498469498 : d : 	(0.536639636391 0.803137972298 -0.258819045103)
	I149 : dAve : 	(0.0412522241668 0.0470391463256 -0.0163624617374) : omega : 	0.0654498469498 : d : 	(0.636879151261 0.726221487276 -0.258819045103)
	I150 : dAve : 	(0.0470391463256 0.0412522241668 -0.0163624617374) : omega : 	0.0654498469498 : d : 	(0.726221487276 0.636879151261 -0.258819045103)
	I151 : dAve : 	(0.052021215649 0.0347594650153 -0.0163624617374) : omega : 	0.0654498469498 : d : 	(0.803137972298 0.536639636391 -0.258819045103)
	I152 : dAve : 	(0.0561131875497 0.0276719617802 -0.0163624617374) : omega : 	0.0654498469498 : d : 	(0.866312543941 0.427218068558 -0.258819045103)
	I153 : dAve : 	(0.0592450472539 0.0201109836069 -0.0163624617374) : omega : 	0.0654498469498 : d : 	(0.914664267771 0.310486681125 -0.258819045103)
	I154 : dAve : 	(0.0613632077737 0.0122059009283 -0.0163624617374) : omega : 	0.0654498469498 : d : 	(0.947365832386 0.188442780494 -0.258819045103)
	I155 : dAve : 	(0.0624314267954 0.00409197190067 -0.0163624617374) : omega : 	0.0654498469498 : d : 	(0.963857704949 0.0631745716435 -0.258819045103)
	I156 : dAve : 	(0.0624314267954 -0.00409197190067 -0.0163624617374) : omega : 	0.0654498469498 : d : 	(0.963857704949 -0.0631745716435 -0.258819045103)
	I157 : dAve : 	(0.0613632077737 -0.0122059009283 -0.0163624617374) : omega : 	0.0654498469498 : d : 	(0.947365832386 -0.188442780494 -0.258819045103)
	I158 : dAve : 	(0.0592450472539 -0.0201109836069 -0.0163624617374) : omega : 	0.0654498469498 : d : 	(0.914664267771 -0.310486681125 -0.258819045103)
	I159 : dAve : 	(0.0561131875497 -0.0276719617802 -0.0163624617374) : omega : 	0.0654498469498 : d : 	(0.866312543941 -0.427218068558 -0.258819045103)
	I160 : dAve : 	(0.052021215649 -0.0347594650153 -0.0163624617374) : omega : 	0.0654498469498 : d : 	(0.803137972298 -0.536639636391 -0.258819045103)
	I161 : dAve : 	(0.0470391463256 -0.0412522241668 -0.0163624617374) : omega : 	0.0654498469498 : d : 	(0.726221487276 -0.636879151261 -0.258819045103)
	I162 : dAve : 	(0.0412522241668 -0.0470391463256 -0.0163624617374) : omega : 	0.0654498469498 : d : 	(0.636879151261 -0.726221487276 -0.258819045103)
	I163 : dAve : 	(0.0347594650153 -0.052021215649 -0.0163624617374) : omega : 	0.0654498469498 : d : 	(0.536639636391 -0.803137972298 -0.258819045103)
	I164 : dAve : 	(0.0276719617802 -0.0561131875497 -0.0163624617374) : omega : 	0.0654498469498 : d : 	(0.427218068558 -0.866312543941 -0.258819045103)
	I165 : dAve : 	(0.0201109836069 -0.0592450472539 -0.0163624617374) : omega : 	0.0654498469498 : d : 	(0.310486681125 -0.914664267771 -0.258819045103)
	I166 : dAve : 	(0.0122059009283 -0.0613632077737 -0.0163624617374) : omega : 	0.0654498469498 : d : 	(0.188442780494 -0.947365832386 -0.258819045103)
	I167 : dAve : 	(0.00409197190067 -0.0624314267954 -0.0163624617374) : omega : 	0.0654498469498 : d : 	(0.0631745716435 -0.963857704949 -0.258819045103)
	I168 : dAve : 	(-0.00409197190067 -0.0624314267954 -0.0163624617374) : omega : 	0.0654498469498 : d : 	(-0.0631745716435 -0.963857704949 -0.258819045103)
	I169 : dAve : 	(-0.0122059009283 -0.0613632077737 -0.0163624617374) : omega : 	0.0654498469498 : d : 	(-0.188442780494 -0.947365832386 -0.258819045103)
	I170 : dAve : 	(-0.0201109836069 -0.0592450472539 -0.0163624617374) : omega : 	0.0654498469498 : d : 	(-0.310486681125 -0.914664267771 -0.258819045103)
	I171 : dAve : 	(-0.0276719617802 -0.0561131875497 -0.0163624617374) : omega : 	0.0654498469498 : d : 	(-0.427218068558 -0.866312543941 -0.258819045103)
	I172 : dAve : 	(-0.0347594650153 -0.052021215649 -0.0163624617374) : omega : 	0.0654498469498 : d : 	(-0.536639636391 -0.803137972298 -0.258819045103)
	I173 : dAve : 	(-0.0412522241668 -0.0470391463256 -0.0163624617374) : omega : 	0.0654498469498 : d : 	(-0.636879151261 -0.726221487276 -0.258819045103)
	I174 : dAve : 	(-0.0470391463256 -0.0412522241668 -0.0163624617374) : omega : 	0.0654498469498 : d : 	(-0.726221487276 -0.636879151261 -0.258819045103)
	I175 : dAve : 	(-0.052021215649 -0.0347594650153 -0.0163624617374) : omega : 	0.0654498469498 : d : 	(-0.803137972298 -0.536639636391 -0.258819045103)
	I176 : dAve : 	(-0.0561131875497 -0.0276719617802 -0.0163624617374) : omega : 	0.0654498469498 : d : 	(-0.866312543941 -0.427218068558 -0.258819045103)
	I177 : dAve : 	(-0.0592450472539 -0.0201109836069 -0.0163624617374) : omega : 	0.0654498469498 : d : 	(-0.914664267771 -0.310486681125 -0.258819045103)
	I178 : dAve : 	(-0.0613632077737 -0.0122059009283 -0.0163624617374) : omega : 	0.0654498469498 : d : 	(-0.947365832386 -0.188442780494 -0.258819045103)
	I179 : dAve : 	(-0.0624314267954 -0.00409197190067 -0.0163624617374) : omega : 	0.0654498469498 : d : 	(-0.963857704949 -0.0631745716435 -0.258819045103)
	I180 : dAve : 	(-0.0624314267954 0.00409197190067 -0.0163624617374) : omega : 	0.0654498469498 : d : 	(-0.963857704949 0.0631745716435 -0.258819045103)
	I181 : dAve : 	(-0.0613632077737 0.0122059009283 -0.0163624617374) : omega : 	0.0654498469498 : d : 	(-0.947365832386 0.188442780494 -0.258819045103)
	I182 : dAve : 	(-0.0592450472539 0.0201109836069 -0.0163624617374) : omega : 	0.0654498469498 : d : 	(-0.914664267771 0.310486681125 -0.258819045103)
	I183 : dAve : 	(-0.0561131875497 0.0276719617802 -0.0163624617374) : omega : 	0.0654498469498 : d : 	(-0.866312543941 0.427218068558 -0.258819045103)
	I184 : dAve : 	(-0.052021215649 0.0347594650153 -0.0163624617374) : omega : 	0.0654498469498 : d : 	(-0.803137972298 0.536639636391 -0.258819045103)
	I185 : dAve : 	(-0.0470391463256 0.0412522241668 -0.0163624617374) : omega : 	0.0654498469498 : d : 	(-0.726221487276 0.636879151261 -0.258819045103)
	I186 : dAve : 	(-0.0412522241668 0.0470391463256 -0.0163624617374) : omega : 	0.0654498469498 : d : 	(-0.636879151261 0.726221487276 -0.258819045103)
	I187 : dAve : 	(-0.0347594650153 0.052021215649 -0.0163624617374) : omega : 	0.0654498469498 : d : 	(-0.536639636391 0.803137972298 -0.258819045103)
	I188 : dAve : 	(-0.0276719617802 0.0561131875497 -0.0163624617374) : omega : 	0.0654498469498 : d : 	(-0.427218068558 0.866312543941 -0.258819045103)
	I189 : dAve : 	(-0.0201109836069 0.0592450472539 -0.0163624617374) : omega : 	0.0654498469498 : d : 	(-0.310486681125 0.914664267771 -0.258819045103)
	I190 : dAve : 	(-0.0122059009283 0.0613632077737 -0.0163624617374) : omega : 	0.0654498469498 : d : 	(-0.188442780494 0.947365832386 -0.258819045103)
	I191 : dAve : 	(-0.00409197190067 0.0624314267954 -0.0163624617374) : omega : 	0.0654498469498 : d : 	(-0.0631745716435 0.963857704949 -0.258819045103)
	I192 : dAve : 	(0.00223973005487 0.034171677215 -0.0327249234749) : omega : 	0.0479126133149 : d : 	(0.0462469961895 0.70559281129 -0.707106781187)
	I193 : dAve : 	(0.00668086776241 0.0335869903436 -0.0327249234749) : omega : 	0.0479126133149 : d : 	(0.137949689641 0.693519922661 -0.707106781187)
	I194 : dAve : 	(0.0110076939702 0.0324276207555 -0.0327249234749) : omega : 	0.0479126133149 : d : 	(0.227292025657 0.669580715876 -0.707106781187)
	I195 : dAve : 	(0.0151461754823 0.0307134055855 -0.0327249234749) : omega : 	0.0479126133149 : d : 	(0.312745332096 0.634184797399 -0.707106781187)
	I196 : dAve : 	(0.0190255017326 0.0284736755306 -0.0327249234749) : omega : 	0.0479126133149 : d : 	(0.392847479194 0.58793780121 -0.707106781187)
	I197 : dAve : 	(0.0225792963734 0.025746752993 -0.0327249234749) : omega : 	0.0479126133149 : d : 	(0.466227897004 0.531631026234 -0.707106781187)
	I198 : dAve : 	(0.025746752993 0.0225792963734 -0.0327249234749) : omega : 	0.0479126133149 : d : 	(0.531631026234 0.466227897004 -0.707106781187)
	I199 : dAve : 	(0.0284736755306 0.0190255017326 -0.0327249234749) : omega : 	0.0479126133149 : d : 	(0.58793780121 0.392847479194 -0.707106781187)
	I200 : dAve : 	(0.0307134055855 0.0151461754823 -0.0327249234749) : omega : 	0.0479126133149 : d : 	(0.634184797399 0.312745332096 -0.707106781187)
	I201 : dAve : 	(0.0324276207555 0.0110076939702 -0.0327249234749) : omega : 	0.0479126133149 : d : 	(0.669580715876 0.227292025657 -0.707106781187)
	I202 : dAve : 	(0.0335869903436 0.00668086776241 -0.0327249234749) : omega : 	0.0479126133149 : d : 	(0.693519922661 0.137949689641 -0.707106781187)
	I203 : dAve : 	(0.034171677215 0.00223973005487 -0.0327249234749) : omega : 	0.0479126133149 : d : 	(0.70559281129 0.0462469961895 -0.707106781187)
	I204 : dAve : 	(0.034171677215 -0.00223973005487 -0.0327249234749) : omega : 	0.0479126133149 : d : 	(0.70559281129 -0.0462469961895 -0.707106781187)
	I205 : dAve : 	(0.0335869903436 -0.00668086776241 -0.0327249234749) : omega : 	0.0479126133149 : d : 	(0.693519922661 -0.137949689641 -0.707106781187)
	I206 : dAve : 	(0.0324276207555 -0.0110076939702 -0.0327249234749) : omega : 	0.0479126133149 : d : 	(0.669580715876 -0.227292025657 -0.707106781187)
	I207 : dAve : 	(0.0307134055855 -0.0151461754823 -0.0327249234749) : omega : 	0.0479126133149 : d : 	(0.634184797399 -0.312745332096 -0.707106781187)
	I208 : dAve : 	(0.0284736755306 -0.0190255017326 -0.0327249234749) : omega : 	0.0479126133149 : d : 	(0.58793780121 -0.392847479194 -0.707106781187)
	I209 : dAve : 	(0.025746752993 -0.0225792963734 -0.0327249234749) : omega : 	0.0479126133149 : d : 	(0.531631026234 -0.466227897004 -0.707106781187)
	I210 : dAve : 	(0.0225792963734 -0.025746752993 -0.0327249234749) : omega : 	0.0479126133149 : d : 	(0.466227897004 -0.531631026234 -0.707106781187)
	I211 : dAve : 	(0.0190255017326 -0.0284736755306 -0.0327249234749) : omega : 	0.0479126133149 : d : 	(0.392847479194 -0.58793780121 -0.707106781187)
	I212 : dAve : 	(0.0151461754823 -0.0307134055855 -0.0327249234749) : omega : 	0.0479126133149 : d : 	(0.312745332096 -0.634184797399 -0.707106781187)
	I213 : dAve : 	(0.0110076939702 -0.0324276207555 -0.0327249234749) : omega : 	0.0479126133149 : d : 	(0.227292025657 -0.669580715876 -0.707106781187)
	I214 : dAve : 	(0.00668086776241 -0.0335869903436 -0.0327249234749) : omega : 	0.0479126133149 : d : 	(0.137949689641 -0.693519922661 -0.707106781187)
	I215 : dAve : 	(0.00223973005487 -0.034171677215 -0.0327249234749) : omega : 	0.0479126133149 : d : 	(0.0462469961895 -0.70559281129 -0.707106781187)
	I216 : dAve : 	(-0.00223973005487 -0.034171677215 -0.0327249234749) : omega : 	0.0479126133149 : d : 	(-0.0462469961895 -0.70559281129 -0.707106781187)
	I217 : dAve : 	(-0.00668086776241 -0.0335869903436 -0.0327249234749) : omega : 	0.0479126133149 : d : 	(-0.137949689641 -0.693519922661 -0.707106781187)
	I218 : dAve : 	(-0.0110076939702 -0.0324276207555 -0.0327249234749) : omega : 	0.0479126133149 : d : 	(-0.227292025657 -0.669580715876 -0.707106781187)
	I219 : dAve : 	(-0.0151461754823 -0.0307134055855 -0.0327249234749) : omega : 	0.0479126133149 : d : 	(-0.312745332096 -0.634184797399 -0.707106781187)
	I220 : dAve : 	(-0.0190255017326 -0.0284736755306 -0.0327249234749) : omega : 	0.0479126133149 : d : 	(-0.392847479194 -0.58793780121 -0.707106781187)
	I221 : dAve : 	(-0.0225792963734 -0.025746752993 -0.0327249234749) : omega : 	0.0479126133149 : d : 	(-0.466227897004 -0.531631026234 -0.707106781187)
	I222 : dAve : 	(-0.025746752993 -0.0225792963734 -0.0327249234749) : omega : 	0.0479126133149 : d : 	(-0.531631026234 -0.466227897004 -0.707106781187)
	I223 : dAve : 	(-0.0284736755306 -0.0190255017326 -0.0327249234749) : omega : 	0.0479126133149 : d : 	(-0.58793780121 -0.392847479194 -0.707106781187)
	I224 : dAve : 	(-0.0307134055855 -0.0151461754823 -0.0327249234749) : omega : 	0.0479126133149 : d : 	(-0.634184797399 -0.312745332096 -0.707106781187)
	I225 : dAve : 	(-0.0324276207555 -0.0110076939702 -0.0327249234749) : omega : 	0.0479126133149 : d : 	(-0.669580715876 -0.227292025657 -0.707106781187)
	I226 : dAve : 	(-0.0335869903436 -0.00668086776241 -0.0327249234749) : omega : 	0.0479126133149 : d : 	(-0.693519922661 -0.137949689641 -0.707106781187)
	I227 : dAve : 	(-0.034171677215 -0.00223973005487 -0.0327249234749) : omega : 	0.0479126133149 : d : 	(-0.70559281129 -0.0462469961895 -0.707106781187)
	I228 : dAve : 	(-0.034171677215 0.00223973005487 -0.0327249234749) : omega : 	0.0479126133149 : d : 	(-0.70559281129 0.0462469961895 -0.707106781187)
	I229 : dAve : 	(-0.0335869903436 0.00668086776241 -0.0327249234749) : omega : 	0.0479126133149 : d : 	(-0.693519922661 0.137949689641 -0.707106781187)
	I230 : dAve : 	(-0.0324276207555 0.0110076939702 -0.0327249234749) : omega : 	0.0479126133149 : d : 	(-0.669580715876 0.227292025657 -0.707106781187)
	I231 : dAve : 	(-0.0307134055855 0.0151461754823 -0.0327249234749) : omega : 	0.0479126133149 : d : 	(-0.634184797399 0.312745332096 -0.707106781187)
	I232 : dAve : 	(-0.0284736755306 0.0190255017326 -0.0327249234749) : omega : 	0.0479126133149 : d : 	(-0.58793780121 0.392847479194 -0.707106781187)
	I233 : dAve : 	(-0.025746752993 0.0225792963734 -0.0327249234749) : omega : 	0.0479126133149 : d : 	(-0.531631026234 0.466227897004 -0.707106781187)
	I234 : dAve : 	(-0.0225792963734 0.025746752993 -0.0327249234749) : omega : 	0.0479126133149 : d : 	(-0.466227897004 0.531631026234 -0.707106781187)
	I235 : dAve : 	(-0.0190255017326 0.0284736755306 -0.0327249234749) : omega : 	0.0479126133149 : d : 	(-0.392847479194 0.58793780121 -0.707106781187)
	I236 : dAve : 	(-0.0151461754823 0.0307134055855 -0.0327249234749) : omega : 	0.0479126133149 : d : 	(-0.312745332096 0.634184797399 -0.707106781187)
	I237 : dAve : 	(-0.0110076939702 0.0324276207555 -0.0327249234749) : omega : 	0.0479126133149 : d : 	(-0.227292025657 0.669580715876 -0.707106781187)
	I238 : dAve : 	(-0.00668086776241 0.0335869903436 -0.0327249234749) : omega : 	0.0479126133149 : d : 	(-0.137949689641 0.693519922661 -0.707106781187)
	I239 : dAve : 	(-0.00223973005487 0.034171677215 -0.0327249234749) : omega : 	0.0479126133149 : d : 	(-0.0462469961895 0.70559281129 -0.707106781187)
	I240 : dAve : 	(0.000387488209079 0.00591192763451 -0.0163624617374) : omega : 	0.0175372336349 : d : 	(0.0169275754541 0.25826489366 -0.965925826289)
	I241 : dAve : 	(0.00115583459655 0.00581077291359 -0.0163624617374) : omega : 	0.0175372336349 : d : 	(0.050493090853 0.253845909725 -0.965925826289)
	I242 : dAve : 	(0.00190440433361 0.00561019425706 -0.0163624617374) : omega : 	0.0175372336349 : d : 	(0.083194655468 0.245083551895 -0.965925826289)
	I243 : dAve : 	(0.00262038918453 0.00531362362136 -0.0163624617374) : omega : 	0.0175372336349 : d : 	(0.114472736462 0.232127746542 -0.965925826289)
	I244 : dAve : 	(0.00329153844998 0.00492613541228 -0.0163624617374) : omega : 	0.0175372336349 : d : 	(0.143792157198 0.215200171088 -0.965925826289)
	I245 : dAve : 	(0.00390636857998 0.00445435966052 -0.0163624617374) : omega : 	0.0175372336349 : d : 	(0.170651254257 0.194590461042 -0.965925826289)
	I246 : dAve : 	(0.00445435966052 0.00390636857998 -0.0163624617374) : omega : 	0.0175372336349 : d : 	(0.194590461042 0.170651254257 -0.965925826289)
	I247 : dAve : 	(0.00492613541228 0.00329153844998 -0.0163624617374) : omega : 	0.0175372336349 : d : 	(0.215200171088 0.143792157198 -0.965925826289)
	I248 : dAve : 	(0.00531362362136 0.00262038918453 -0.0163624617374) : omega : 	0.0175372336349 : d : 	(0.232127746542 0.114472736462 -0.965925826289)
	I249 : dAve : 	(0.00561019425706 0.00190440433361 -0.0163624617374) : omega : 	0.0175372336349 : d : 	(0.245083551895 0.083194655468 -0.965925826289)
	I250 : dAve : 	(0.00581077291359 0.00115583459655 -0.0163624617374) : omega : 	0.0175372336349 : d : 	(0.253845909725 0.050493090853 -0.965925826289)
	I251 : dAve : 	(0.00591192763451 0.000387488209079 -0.0163624617374) : omega : 	0.0175372336349 : d : 	(0.25826489366 0.0169275754541 -0.965925826289)
	I252 : dAve : 	(0.00591192763451 -0.000387488209079 -0.0163624617374) : omega : 	0.0175372336349 : d : 	(0.25826489366 -0.0169275754541 -0.965925826289)
	I253 : dAve : 	(0.00581077291359 -0.00115583459655 -0.0163624617374) : omega : 	0.0175372336349 : d : 	(0.253845909725 -0.050493090853 -0.965925826289)
	I254 : dAve : 	(0.00561019425706 -0.00190440433361 -0.0163624617374) : omega : 	0.0175372336349 : d : 	(0.245083551895 -0.083194655468 -0.965925826289)
	I255 : dAve : 	(0.00531362362136 -0.00262038918453 -0.0163624617374) : omega : 	0.0175372336349 : d : 	(0.232127746542 -0.114472736462 -0.965925826289)
	I256 : dAve : 	(0.00492613541228 -0.00329153844998 -0.0163624617374) : omega : 	0.0175372336349 : d : 	(0.215200171088 -0.143792157198 -0.965925826289)
	I257 : dAve : 	(0.00445435966052 -0.00390636857998 -0.0163624617374) : omega : 	0.0175372336349 : d : 	(0.194590461042 -0.170651254257 -0.965925826289)
	I258 : dAve : 	(0.00390636857998 -0.00445435966052 -0.0163624617374) : omega : 	0.0175372336349 : d : 	(0.170651254257 -0.194590461042 -0.965925826289)
	I259 : dAve : 	(0.00329153844998 -0.00492613541228 -0.0163624617374) : omega : 	0.0175372336349 : d : 	(0.143792157198 -0.215200171088 -0.965925826289)
	I260 : dAve : 	(0.00262038918453 -0.00531362362136 -0.0163624617374) : omega : 	0.0175372336349 : d : 	(0.114472736462 -0.232127746542 -0.965925826289)
	I261 : dAve : 	(0.00190440433361 -0.00561019425706 -0.0163624617374) : omega : 	0.0175372336349 : d : 	(0.083194655468 -0.245083551895 -0.965925826289)
	I262 : dAve : 	(0.00115583459655 -0.00581077291359 -0.0163624617374) : omega : 	0.0175372336349 : d : 	(0.050493090853 -0.253845909725 -0.965925826289)
	I263 : dAve : 	(0.000387488209079 -0.00591192763451 -0.0163624617374) : omega : 	0.0175372336349 : d : 	(0.0169275754541 -0.25826489366 -0.965925826289)
	I264 : dAve : 	(-0.000387488209079 -0.00591192763451 -0.0163624617374) : omega : 	0.0175372336349 : d : 	(-0.0169275754541 -0.25826489366 -0.965925826289)
	I265 : dAve : 	(-0.00115583459655 -0.00581077291359 -0.0163624617374) : omega : 	0.0175372336349 : d : 	(-0.050493090853 -0.253845909725 -0.965925826289)
	I266 : dAve : 	(-0.00190440433361 -0.00561019425706 -0.0163624617374) : omega : 	0.0175372336349 : d : 	(-0.083194655468 -0.245083551895 -0.965925826289)
	I267 : dAve : 	(-0.00262038918453 -0.00531362362136 -0.0163624617374) : omega : 	0.0175372336349 : d : 	(-0.114472736462 -0.232127746542 -0.965925826289)
	I268 : dAve : 	(-0.00329153844998 -0.00492613541228 -0.0163624617374) : omega : 	0.0175372336349 : d : 	(-0.143792157198 -0.215200171088 -0.965925826289)
	I269 : dAve : 	(-0.00390636857998 -0.00445435966052 -0.0163624617374) : omega : 	0.0175372336349 : d : 	(-0.170651254257 -0.194590461042 -0.965925826289)
	I270 : dAve : 	(-0.00445435966052 -0.00390636857998 -0.0163624617374) : omega : 	0.0175372336349 : d : 	(-0.194590461042 -0.170651254257 -0.965925826289)
	I271 : dAve : 	(-0.00492613541228 -0.00329153844998 -0.0163624617374) : omega : 	0.0175372336349 : d : 	(-0.215200171088 -0.143792157198 -0.965925826289)
	I272 : dAve : 	(-0.00531362362136 -0.00262038918453 -0.0163624617374) : omega : 	0.0175372336349 : d : 	(-0.232127746542 -0.114472736462 -0.965925826289)
	I273 : dAve : 	(-0.00561019425706 -0.00190440433361 -0.0163624617374) : omega : 	0.0175372336349 : d : 	(-0.245083551895 -0.083194655468 -0.965925826289)
	I274 : dAve : 	(-0.00581077291359 -0.00115583459655 -0.0163624617374) : omega : 	0.0175372336349 : d : 	(-0.253845909725 -0.050493090853 -0.965925826289)
	I275 : dAve : 	(-0.00591192763451 -0.000387488209079 -0.0163624617374) : omega : 	0.0175372336349 : d : 	(-0.25826489366 -0.0169275754541 -0.965925826289)
	I276 : dAve : 	(-0.00591192763451 0.000387488209079 -0.0163624617374) : omega : 	0.0175372336349 : d : 	(-0.25826489366 0.0169275754541 -0.965925826289)
	I277 : dAve : 	(-0.00581077291359 0.00115583459655 -0.0163624617374) : omega : 	0.0175372336349 : d : 	(-0.253845909725 0.050493090853 -0.965925826289)
	I278 : dAve : 	(-0.00561019425706 0.00190440433361 -0.0163624617374) : omega : 	0.0175372336349 : d : 	(-0.245083551895 0.083194655468 -0.965925826289)
	I279 : dAve : 	(-0.00531362362136 0.00262038918453 -0.0163624617374) : omega : 	0.0175372336349 : d : 	(-0.232127746542 0.114472736462 -0.965925826289)
	I280 : dAve : 	(-0.00492613541228 0.00329153844998 -0.0163624617374) : omega : 	0.0175372336349 : d : 	(-0.215200171088 0.143792157198 -0.965925826289)
	I281 : dAve : 	(-0.00445435966052 0.00390636857998 -0.0163624617374) : omega : 	0.0175372336349 : d : 	(-0.194590461042 0.170651254257 -0.965925826289)
	I282 : dAve : 	(-0.00390636857998 0.00445435966052 -0.0163624617374) : omega : 	0.0175372336349 : d : 	(-0.170651254257 0.194590461042 -0.965925826289)
	I283 : dAve : 	(-0.00329153844998 0.00492613541228 -0.0163624617374) : omega : 	0.0175372336349 : d : 	(-0.143792157198 0.215200171088 -0.965925826289)
	I284 : dAve : 	(-0.00262038918453 0.00531362362136 -0.0163624617374) : omega : 	0.0175372336349 : d : 	(-0.114472736462 0.232127746542 -0.965925826289)
	I285 : dAve : 	(-0.00190440433361 0.00561019425706 -0.0163624617374) : omega : 	0.0175372336349 : d : 	(-0.083194655468 0.245083551895 -0.965925826289)
	I286 : dAve : 	(-0.00115583459655 0.00581077291359 -0.0163624617374) : omega : 	0.0175372336349 : d : 	(-0.050493090853 0.253845909725 -0.965925826289)
	I287 : dAve : 	(-0.000387488209079 0.00591192763451 -0.0163624617374) : omega : 	0.0175372336349 : d : 	(-0.0169275754541 0.25826489366 -0.965925826289)
Total omega : 12.5663706144

Courant Number mean: 0 max: 0

Starting time loop

Sampled set:
    data -> csv

Sampled set:
    data -> csv

Sampled surface:
    yNormal -> ensight
        sampledCuttingPlane: yNormal : plane:(0 1 0) (0 0 0) offsets:(0)

Sampled surface:
    zNormal -> ensight
        sampledCuttingPlane: zNormal : plane:(0 0 1) (0 0 0) offsets:(0)

Sampled surface:
    patchAll -> ensight
        sampledPatch: patchAll : patches:(".*WW.*")

deltaT = 1
Time = 1

PIMPLE: iteration 1
Radiation solver iter: 0
DILUPBiCGStab:  Solving for ILambda_0_0, Initial residual = 1, Final residual = 1.51683805693e-62, No Iterations 2
DILUPBiCGStab:  Solving for ILambda_1_0, Initial residual = 1, Final residual = 1.07769358154e-62, No Iterations 2
DILUPBiCGStab:  Solving for ILambda_2_0, Initial residual = 1, Final residual = 8.34311278005e-63, No Iterations 2
DILUPBiCGStab:  Solving for ILambda_3_0, Initial residual = 1, Final residual = 9.12708223007e-63, No Iterations 2
DILUPBiCGStab:  Solving for ILambda_4_0, Initial residual = 1, Final residual = 8.99323116859e-63, No Iterations 2
DILUPBiCGStab:  Solving for ILambda_5_0, Initial residual = 1, Final residual = 8.60249469248e-63, No Iterations 2
DILUPBiCGStab:  Solving for ILambda_6_0, Initial residual = 1, Final residual = 9.34733559089e-63, No Iterations 2
DILUPBiCGStab:  Solving for ILambda_7_0, Initial residual = 1, Final residual = 9.66729991748e-63, No Iterations 2
DILUPBiCGStab:  Solving for ILambda_8_0, Initial residual = 1, Final residual = 7.27806826543e-63, No Iterations 2
DILUPBiCGStab:  Solving for ILambda_9_0, Initial residual = 1, Final residual = 1.22090757633e-62, No Iterations 2
DILUPBiCGStab:  Solving for ILambda_10_0, Initial residual = 1, Final residual = 8.76986703336e-63, No Iterations 2
DILUPBiCGStab:  Solving for ILambda_11_0, Initial residual = 1, Final residual = 1.92810463799e-62, No Iterations 2
DILUPBiCGStab:  Solving for ILambda_12_0, Initial residual = 1, Final residual = 1.42447540696e-61, No Iterations 33
DILUPBiCGStab:  Solving for ILambda_13_0, Initial residual = 1, Final residual = 6.89125494112e-61, No Iterations 47
DILUPBiCGStab:  Solving for ILambda_14_0, Initial residual = 1, Final residual = 1.08559055087e-61, No Iterations 57
DILUPBiCGStab:  Solving for ILambda_15_0, Initial residual = 1, Final residual = 5.69787224987e-61, No Iterations 63
DILUPBiCGStab:  Solving for ILambda_16_0, Initial residual = 1, Final residual = 8.64099506748e-61, No Iterations 65
DILUPBiCGStab:  Solving for ILambda_17_0, Initial residual = 1, Final residual = 5.95407792606e-63, No Iterations 67
DILUPBiCGStab:  Solving for ILambda_18_0, Initial residual = 1, Final residual = 9.23192580726e-61, No Iterations 66
DILUPBiCGStab:  Solving for ILambda_19_0, Initial residual = 1, Final residual = 2.86907869936e-62, No Iterations 66
DILUPBiCGStab:  Solving for ILambda_20_0, Initial residual = 1, Final residual = 5.06358823536e-61, No Iterations 62
DILUPBiCGStab:  Solving for ILambda_21_0, Initial residual = 1, Final residual = 1.9579861007e-62, No Iterations 56
DILUPBiCGStab:  Solving for ILambda_22_0, Initial residual = 1, Final residual = 4.31172178482e-61, No Iterations 46
DILUPBiCGStab:  Solving for ILambda_23_0, Initial residual = 1, Final residual = 2.69290917263e-61, No Iterations 34
DILUPBiCGStab:  Solving for ILambda_24_0, Initial residual = 1, Final residual = 1.36173915235e-61, No Iterations 26
DILUPBiCGStab:  Solving for ILambda_25_0, Initial residual = 1, Final residual = 8.49252803432e-61, No Iterations 25
DILUPBiCGStab:  Solving for ILambda_26_0, Initial residual = 1, Final residual = 5.17524589046e-62, No Iterations 26
DILUPBiCGStab:  Solving for ILambda_27_0, Initial residual = 1, Final residual = 3.70540943521e-61, No Iterations 26
DILUPBiCGStab:  Solving for ILambda_28_0, Initial residual = 1, Final residual = 9.57689903489e-61, No Iterations 26
DILUPBiCGStab:  Solving for ILambda_29_0, Initial residual = 1, Final residual = 3.05436978479e-61, No Iterations 27
DILUPBiCGStab:  Solving for ILambda_30_0, Initial residual = 1, Final residual = 5.21713906375e-61, No Iterations 27
DILUPBiCGStab:  Solving for ILambda_31_0, Initial residual = 1, Final residual = 1.2230707533e-61, No Iterations 27
DILUPBiCGStab:  Solving for ILambda_32_0, Initial residual = 1, Final residual = 2.55845932567e-61, No Iterations 26
DILUPBiCGStab:  Solving for ILambda_33_0, Initial residual = 1, Final residual = 1.22784888863e-61, No Iterations 26
DILUPBiCGStab:  Solving for ILambda_34_0, Initial residual = 1, Final residual = 6.39348950161e-61, No Iterations 25
DILUPBiCGStab:  Solving for ILambda_35_0, Initial residual = 1, Final residual = 4.23141494971e-61, No Iterations 26
DILUPBiCGStab:  Solving for ILambda_36_0, Initial residual = 1, Final residual = 2.9961519542e-61, No Iterations 34
DILUPBiCGStab:  Solving for ILambda_37_0, Initial residual = 1, Final residual = 2.64856990142e-61, No Iterations 46
DILUPBiCGStab:  Solving for ILambda_38_0, Initial residual = 1, Final residual = 3.9479886924e-61, No Iterations 56
DILUPBiCGStab:  Solving for ILambda_39_0, Initial residual = 1, Final residual = 3.71926386665e-61, No Iterations 62
DILUPBiCGStab:  Solving for ILambda_40_0, Initial residual = 1, Final residual = 8.2808798314e-61, No Iterations 65
DILUPBiCGStab:  Solving for ILambda_41_0, Initial residual = 1, Final residual = 2.9566391403e-61, No Iterations 66
DILUPBiCGStab:  Solving for ILambda_42_0, Initial residual = 1, Final residual = 4.94341879293e-61, No Iterations 66
DILUPBiCGStab:  Solving for ILambda_43_0, Initial residual = 1, Final residual = 4.05564912869e-61, No Iterations 65
DILUPBiCGStab:  Solving for ILambda_44_0, Initial residual = 1, Final residual = 6.57128781256e-61, No Iterations 62
DILUPBiCGStab:  Solving for ILambda_45_0, Initial residual = 1, Final residual = 6.57868245744e-62, No Iterations 57
DILUPBiCGStab:  Solving for ILambda_46_0, Initial residual = 1, Final residual = 3.55283580764e-61, No Iterations 47
DILUPBiCGStab:  Solving for ILambda_47_0, Initial residual = 1, Final residual = 1.92001933345e-61, No Iterations 33
DILUPBiCGStab:  Solving for ILambda_48_0, Initial residual = 1, Final residual = 3.21016419391e-62, No Iterations 2
DILUPBiCGStab:  Solving for ILambda_49_0, Initial residual = 1, Final residual = 3.14187250228e-62, No Iterations 2
DILUPBiCGStab:  Solving for ILambda_50_0, Initial residual = 1, Final residual = 4.27455611715e-62, No Iterations 2
DILUPBiCGStab:  Solving for ILambda_51_0, Initial residual = 1, Final residual = 3.42233268971e-62, No Iterations 2
DILUPBiCGStab:  Solving for ILambda_52_0, Initial residual = 1, Final residual = 2.61092132584e-62, No Iterations 2
DILUPBiCGStab:  Solving for ILambda_53_0, Initial residual = 1, Final residual = 2.50138453129e-62, No Iterations 2
DILUPBiCGStab:  Solving for ILambda_54_0, Initial residual = 1, Final residual = 3.59947076212e-62, No Iterations 2
DILUPBiCGStab:  Solving for ILambda_55_0, Initial residual = 1, Final residual = 2.40908918209e-62, No Iterations 2
DILUPBiCGStab:  Solving for ILambda_56_0, Initial residual = 1, Final residual = 3.6741707833e-62, No Iterations 2
DILUPBiCGStab:  Solving for ILambda_57_0, Initial residual = 1, Final residual = 3.59798026404e-62, No Iterations 2
DILUPBiCGStab:  Solving for ILambda_58_0, Initial residual = 1, Final residual = 3.25645667528e-62, No Iterations 2
DILUPBiCGStab:  Solving for ILambda_59_0, Initial residual = 1, Final residual = 2.35030121282e-62, No Iterations 2
DILUPBiCGStab:  Solving for ILambda_60_0, Initial residual = 1, Final residual = 2.45179892726e-61, No Iterations 38
DILUPBiCGStab:  Solving for ILambda_61_0, Initial residual = 1, Final residual = 3.32866704184e-61, No Iterations 55
DILUPBiCGStab:  Solving for ILambda_62_0, Initial residual = 1, Final residual = 7.37402396076e-61, No Iterations 68
DILUPBiCGStab:  Solving for ILambda_63_0, Initial residual = 1, Final residual = 1.46631192871e-62, No Iterations 73
DILUPBiCGStab:  Solving for ILambda_64_0, Initial residual = 1, Final residual = 3.36779486998e-61, No Iterations 73
DILUPBiCGStab:  Solving for ILambda_65_0, Initial residual = 1, Final residual = 3.01032236929e-61, No Iterations 75
DILUPBiCGStab:  Solving for ILambda_66_0, Initial residual = 1, Final residual = 2.46231833345e-61, No Iterations 75
DILUPBiCGStab:  Solving for ILambda_67_0, Initial residual = 1, Final residual = 2.60343267923e-61, No Iterations 74
DILUPBiCGStab:  Solving for ILambda_68_0, Initial residual = 1, Final residual = 1.40413722332e-61, No Iterations 73
DILUPBiCGStab:  Solving for ILambda_69_0, Initial residual = 1, Final residual = 9.72636184975e-61, No Iterations 65
DILUPBiCGStab:  Solving for ILambda_70_0, Initial residual = 1, Final residual = 2.31445260433e-61, No Iterations 54
DILUPBiCGStab:  Solving for ILambda_71_0, Initial residual = 1, Final residual = 6.09489342942e-61, No Iterations 40
DILUPBiCGStab:  Solving for ILambda_72_0, Initial residual = 1, Final residual = 2.74202836334e-62, No Iterations 31
DILUPBiCGStab:  Solving for ILambda_73_0, Initial residual = 1, Final residual = 2.72544618091e-61, No Iterations 32
DILUPBiCGStab:  Solving for ILambda_74_0, Initial residual = 1, Final residual = 4.8950131055e-62, No Iterations 34
DILUPBiCGStab:  Solving for ILambda_75_0, Initial residual = 1, Final residual = 2.44011200529e-61, No Iterations 33
DILUPBiCGStab:  Solving for ILambda_76_0, Initial residual = 1, Final residual = 1.92561030033e-61, No Iterations 33
DILUPBiCGStab:  Solving for ILambda_77_0, Initial residual = 1, Final residual = 4.7080889708e-61, No Iterations 33
DILUPBiCGStab:  Solving for ILambda_78_0, Initial residual = 1, Final residual = 1.86043820499e-61, No Iterations 34
DILUPBiCGStab:  Solving for ILambda_79_0, Initial residual = 1, Final residual = 1.96991364644e-61, No Iterations 34
DILUPBiCGStab:  Solving for ILambda_80_0, Initial residual = 1, Final residual = 5.59015724212e-63, No Iterations 33
DILUPBiCGStab:  Solving for ILambda_81_0, Initial residual = 1, Final residual = 1.21402358238e-61, No Iterations 33
DILUPBiCGStab:  Solving for ILambda_82_0, Initial residual = 1, Final residual = 1.17058077615e-61, No Iterations 32
DILUPBiCGStab:  Solving for ILambda_83_0, Initial residual = 1, Final residual = 1.12985735303e-61, No Iterations 31
DILUPBiCGStab:  Solving for ILambda_84_0, Initial residual = 1, Final residual = 3.27732922878e-61, No Iterations 40
DILUPBiCGStab:  Solving for ILambda_85_0, Initial residual = 1, Final residual = 3.89491117719e-61, No Iterations 54
DILUPBiCGStab:  Solving for ILambda_86_0, Initial residual = 1, Final residual = 6.67038016015e-61, No Iterations 65
DILUPBiCGStab:  Solving for ILambda_87_0, Initial residual = 1, Final residual = 1.70874992475e-62, No Iterations 74
DILUPBiCGStab:  Solving for ILambda_88_0, Initial residual = 1, Final residual = 4.3523122816e-61, No Iterations 74
DILUPBiCGStab:  Solving for ILambda_89_0, Initial residual = 1, Final residual = 2.26197043173e-61, No Iterations 74
DILUPBiCGStab:  Solving for ILambda_90_0, Initial residual = 1, Final residual = 2.69000721576e-61, No Iterations 75
DILUPBiCGStab:  Solving for ILambda_91_0, Initial residual = 1, Final residual = 2.2502964513e-61, No Iterations 72
DILUPBiCGStab:  Solving for ILambda_92_0, Initial residual = 1, Final residual = 5.37498910934e-61, No Iterations 72
DILUPBiCGStab:  Solving for ILambda_93_0, Initial residual = 1, Final residual = 4.75747749536e-62, No Iterations 68
DILUPBiCGStab:  Solving for ILambda_94_0, Initial residual = 1, Final residual = 1.87330483088e-61, No Iterations 55
DILUPBiCGStab:  Solving for ILambda_95_0, Initial residual = 1, Final residual = 4.82124302605e-61, No Iterations 38
DILUPBiCGStab:  Solving for ILambda_96_0, Initial residual = 1, Final residual = 1.23035456901e-61, No Iterations 2
DILUPBiCGStab:  Solving for ILambda_97_0, Initial residual = 1, Final residual = 5.14639386577e-62, No Iterations 2
DILUPBiCGStab:  Solving for ILambda_98_0, Initial residual = 1, Final residual = 5.21544160132e-62, No Iterations 2
DILUPBiCGStab:  Solving for ILambda_99_0, Initial residual = 1, Final residual = 5.00844070797e-62, No Iterations 2
DILUPBiCGStab:  Solving for ILambda_100_0, Initial residual = 1, Final residual = 1.05056998358e-61, No Iterations 2
DILUPBiCGStab:  Solving for ILambda_101_0, Initial residual = 1, Final residual = 4.47450017204e-62, No Iterations 2
DILUPBiCGStab:  Solving for ILambda_102_0, Initial residual = 1, Final residual = 4.79374251374e-62, No Iterations 2
DILUPBiCGStab:  Solving for ILambda_103_0, Initial residual = 1, Final residual = 7.5472742946e-62, No Iterations 2
DILUPBiCGStab:  Solving for ILambda_104_0, Initial residual = 1, Final residual = 6.90647910252e-62, No Iterations 2
DILUPBiCGStab:  Solving for ILambda_105_0, Initial residual = 1, Final residual = 3.49032202715e-62, No Iterations 2
DILUPBiCGStab:  Solving for ILambda_106_0, Initial residual = 1, Final residual = 4.79468747331e-62, No Iterations 2
DILUPBiCGStab:  Solving for ILambda_107_0, Initial residual = 1, Final residual = 1.2590660846e-61, No Iterations 2
DILUPBiCGStab:  Solving for ILambda_108_0, Initial residual = 1, Final residual = 4.65244875028e-61, No Iterations 40
DILUPBiCGStab:  Solving for ILambda_109_0, Initial residual = 1, Final residual = 7.47158463178e-61, No Iterations 58
DILUPBiCGStab:  Solving for ILambda_110_0, Initial residual = 1, Final residual = 8.6776011058e-61, No Iterations 70
DILUPBiCGStab:  Solving for ILambda_111_0, Initial residual = 1, Final residual = 9.76600882848e-61, No Iterations 75
DILUPBiCGStab:  Solving for ILambda_112_0, Initial residual = 1, Final residual = 5.60808838738e-61, No Iterations 79
DILUPBiCGStab:  Solving for ILambda_113_0, Initial residual = 1, Final residual = 5.07783146802e-61, No Iterations 80
DILUPBiCGStab:  Solving for ILambda_114_0, Initial residual = 1, Final residual = 2.67393300821e-61, No Iterations 82
DILUPBiCGStab:  Solving for ILambda_115_0, Initial residual = 1, Final residual = 4.44964377558e-62, No Iterations 81
DILUPBiCGStab:  Solving for ILambda_116_0, Initial residual = 1, Final residual = 2.55036318498e-61, No Iterations 77
DILUPBiCGStab:  Solving for ILambda_117_0, Initial residual = 1, Final residual = 7.39964394916e-61, No Iterations 68
DILUPBiCGStab:  Solving for ILambda_118_0, Initial residual = 1, Final residual = 7.23720067966e-61, No Iterations 57
DILUPBiCGStab:  Solving for ILambda_119_0, Initial residual = 1, Final residual = 4.08542552576e-61, No Iterations 41
DILUPBiCGStab:  Solving for ILambda_120_0, Initial residual = 1, Final residual = 1.82673696799e-62, No Iterations 31
DILUPBiCGStab:  Solving for ILambda_121_0, Initial residual = 1, Final residual = 7.54891547953e-61, No Iterations 31
DILUPBiCGStab:  Solving for ILambda_122_0, Initial residual = 1, Final residual = 1.19760555285e-61, No Iterations 34
DILUPBiCGStab:  Solving for ILambda_123_0, Initial residual = 1, Final residual = 2.52893377562e-62, No Iterations 34
DILUPBiCGStab:  Solving for ILambda_124_0, Initial residual = 1, Final residual = 3.94091721031e-61, No Iterations 32
DILUPBiCGStab:  Solving for ILambda_125_0, Initial residual = 1, Final residual = 1.69173923087e-62, No Iterations 34
DILUPBiCGStab:  Solving for ILambda_126_0, Initial residual = 1, Final residual = 6.32997305664e-61, No Iterations 33
DILUPBiCGStab:  Solving for ILambda_127_0, Initial residual = 1, Final residual = 1.36613185811e-61, No Iterations 35
DILUPBiCGStab:  Solving for ILambda_128_0, Initial residual = 1, Final residual = 1.52671627335e-61, No Iterations 34
DILUPBiCGStab:  Solving for ILambda_129_0, Initial residual = 1, Final residual = 2.36906967855e-62, No Iterations 32
DILUPBiCGStab:  Solving for ILambda_130_0, Initial residual = 1, Final residual = 8.61706779337e-61, No Iterations 31
DILUPBiCGStab:  Solving for ILambda_131_0, Initial residual = 1, Final residual = 2.45886633951e-62, No Iterations 31
DILUPBiCGStab:  Solving for ILambda_132_0, Initial residual = 1, Final residual = 2.761440497e-61, No Iterations 41
DILUPBiCGStab:  Solving for ILambda_133_0, Initial residual = 1, Final residual = 2.71045039746e-61, No Iterations 57
DILUPBiCGStab:  Solving for ILambda_134_0, Initial residual = 1, Final residual = 6.4050525554e-61, No Iterations 69
DILUPBiCGStab:  Solving for ILambda_135_0, Initial residual = 1, Final residual = 7.10166434275e-61, No Iterations 77
DILUPBiCGStab:  Solving for ILambda_136_0, Initial residual = 1, Final residual = 3.94701474799e-61, No Iterations 80
DILUPBiCGStab:  Solving for ILambda_137_0, Initial residual = 1, Final residual = 3.18443304358e-61, No Iterations 81
DILUPBiCGStab:  Solving for ILambda_138_0, Initial residual = 1, Final residual = 4.70367672386e-61, No Iterations 80
DILUPBiCGStab:  Solving for ILambda_139_0, Initial residual = 1, Final residual = 3.23191770534e-61, No Iterations 78
DILUPBiCGStab:  Solving for ILambda_140_0, Initial residual = 1, Final residual = 8.63277494326e-61, No Iterations 75
DILUPBiCGStab:  Solving for ILambda_141_0, Initial residual = 1, Final residual = 8.88070566888e-61, No Iterations 69
DILUPBiCGStab:  Solving for ILambda_142_0, Initial residual = 1, Final residual = 1.47937217432e-61, No Iterations 58
DILUPBiCGStab:  Solving for ILambda_143_0, Initial residual = 1, Final residual = 2.80349479318e-61, No Iterations 40
DILUPBiCGStab:  Solving for ILambda_144_0, Initial residual = 1, Final residual = 3.36623270784e-62, No Iterations 29
DILUPBiCGStab:  Solving for ILambda_145_0, Initial residual = 1, Final residual = 2.05519718301e-61, No Iterations 28
DILUPBiCGStab:  Solving for ILambda_146_0, Initial residual = 1, Final residual = 4.28503422444e-62, No Iterations 31
DILUPBiCGStab:  Solving for ILambda_147_0, Initial residual = 1, Final residual = 1.03586333125e-62, No Iterations 30
DILUPBiCGStab:  Solving for ILambda_148_0, Initial residual = 1, Final residual = 6.51097147234e-61, No Iterations 30
DILUPBiCGStab:  Solving for ILambda_149_0, Initial residual = 1, Final residual = 4.30328884781e-61, No Iterations 32
DILUPBiCGStab:  Solving for ILambda_150_0, Initial residual = 1, Final residual = 6.15258547347e-62, No Iterations 31
DILUPBiCGStab:  Solving for ILambda_151_0, Initial residual = 1, Final residual = 1.37319186889e-62, No Iterations 30
DILUPBiCGStab:  Solving for ILambda_152_0, Initial residual = 1, Final residual = 5.47090081985e-61, No Iterations 30
DILUPBiCGStab:  Solving for ILambda_153_0, Initial residual = 1, Final residual = 1.06142982781e-61, No Iterations 30
DILUPBiCGStab:  Solving for ILambda_154_0, Initial residual = 1, Final residual = 3.11072945444e-62, No Iterations 28
DILUPBiCGStab:  Solving for ILambda_155_0, Initial residual = 1, Final residual = 9.24437513623e-61, No Iterations 29
DILUPBiCGStab:  Solving for ILambda_156_0, Initial residual = 1, Final residual = 1.58602973325e-61, No Iterations 42
DILUPBiCGStab:  Solving for ILambda_157_0, Initial residual = 1, Final residual = 3.74142427099e-61, No Iterations 58
DILUPBiCGStab:  Solving for ILambda_158_0, Initial residual = 1, Final residual = 2.04315381754e-61, No Iterations 69
DILUPBiCGStab:  Solving for ILambda_159_0, Initial residual = 1, Final residual = 3.4228953713e-61, No Iterations 78
DILUPBiCGStab:  Solving for ILambda_160_0, Initial residual = 1, Final residual = 1.64287295273e-61, No Iterations 80
DILUPBiCGStab:  Solving for ILambda_161_0, Initial residual = 1, Final residual = 3.11571914728e-61, No Iterations 82
DILUPBiCGStab:  Solving for ILambda_162_0, Initial residual = 1, Final residual = 5.31751903556e-61, No Iterations 80
DILUPBiCGStab:  Solving for ILambda_163_0, Initial residual = 1, Final residual = 9.88082324241e-61, No Iterations 79
DILUPBiCGStab:  Solving for ILambda_164_0, Initial residual = 1, Final residual = 2.71245416261e-61, No Iterations 76
DILUPBiCGStab:  Solving for ILambda_165_0, Initial residual = 1, Final residual = 4.07284975974e-61, No Iterations 69
DILUPBiCGStab:  Solving for ILambda_166_0, Initial residual = 1, Final residual = 5.4898509751e-61, No Iterations 58
DILUPBiCGStab:  Solving for ILambda_167_0, Initial residual = 1, Final residual = 4.32272481597e-61, No Iterations 40
DILUPBiCGStab:  Solving for ILambda_168_0, Initial residual = 1, Final residual = 7.17531133685e-62, No Iterations 2
DILUPBiCGStab:  Solving for ILambda_169_0, Initial residual = 1, Final residual = 4.56805106877e-62, No Iterations 2
DILUPBiCGStab:  Solving for ILambda_170_0, Initial residual = 1, Final residual = 2.97781640762e-62, No Iterations 2
DILUPBiCGStab:  Solving for ILambda_171_0, Initial residual = 1, Final residual = 3.94332297725e-62, No Iterations 2
DILUPBiCGStab:  Solving for ILambda_172_0, Initial residual = 1, Final residual = 7.24377307143e-62, No Iterations 2
DILUPBiCGStab:  Solving for ILambda_173_0, Initial residual = 1, Final residual = 7.35028387422e-62, No Iterations 2
DILUPBiCGStab:  Solving for ILambda_174_0, Initial residual = 1, Final residual = 4.94010582439e-62, No Iterations 2
DILUPBiCGStab:  Solving for ILambda_175_0, Initial residual = 1, Final residual = 4.83062396612e-62, No Iterations 2
DILUPBiCGStab:  Solving for ILambda_176_0, Initial residual = 1, Final residual = 5.9143618022e-62, No Iterations 2
DILUPBiCGStab:  Solving for ILambda_177_0, Initial residual = 1, Final residual = 2.89512199029e-62, No Iterations 2
DILUPBiCGStab:  Solving for ILambda_178_0, Initial residual = 1, Final residual = 4.0482186692e-62, No Iterations 2
DILUPBiCGStab:  Solving for ILambda_179_0, Initial residual = 1, Final residual = 3.99883935269e-62, No Iterations 2
DILUPBiCGStab:  Solving for ILambda_180_0, Initial residual = 1, Final residual = 3.70994463502e-61, No Iterations 41
DILUPBiCGStab:  Solving for ILambda_181_0, Initial residual = 1, Final residual = 9.59802005048e-61, No Iterations 57
DILUPBiCGStab:  Solving for ILambda_182_0, Initial residual = 1, Final residual = 2.52841130682e-61, No Iterations 70
DILUPBiCGStab:  Solving for ILambda_183_0, Initial residual = 1, Final residual = 9.93710919374e-61, No Iterations 76
DILUPBiCGStab:  Solving for ILambda_184_0, Initial residual = 1, Final residual = 4.17117687908e-61, No Iterations 79
DILUPBiCGStab:  Solving for ILambda_185_0, Initial residual = 1, Final residual = 2.78858645546e-61, No Iterations 81
DILUPBiCGStab:  Solving for ILambda_186_0, Initial residual = 1, Final residual = 8.51911299957e-61, No Iterations 82
DILUPBiCGStab:  Solving for ILambda_187_0, Initial residual = 1, Final residual = 2.59936824558e-61, No Iterations 79
DILUPBiCGStab:  Solving for ILambda_188_0, Initial residual = 1, Final residual = 7.18156619676e-61, No Iterations 78
DILUPBiCGStab:  Solving for ILambda_189_0, Initial residual = 1, Final residual = 3.91990766263e-61, No Iterations 69
DILUPBiCGStab:  Solving for ILambda_190_0, Initial residual = 1, Final residual = 5.61681611594e-61, No Iterations 58
DILUPBiCGStab:  Solving for ILambda_191_0, Initial residual = 1, Final residual = 5.53974980124e-61, No Iterations 42
DILUPBiCGStab:  Solving for ILambda_192_0, Initial residual = 1, Final residual = 4.41368744642e-62, No Iterations 29
DILUPBiCGStab:  Solving for ILambda_193_0, Initial residual = 1, Final residual = 1.53642878309e-62, No Iterations 30
DILUPBiCGStab:  Solving for ILambda_194_0, Initial residual = 1, Final residual = 3.46997302879e-61, No Iterations 30
DILUPBiCGStab:  Solving for ILambda_195_0, Initial residual = 1, Final residual = 2.85474651635e-62, No Iterations 31
DILUPBiCGStab:  Solving for ILambda_196_0, Initial residual = 1, Final residual = 6.4737678979e-62, No Iterations 32
DILUPBiCGStab:  Solving for ILambda_197_0, Initial residual = 1, Final residual = 1.68371039071e-62, No Iterations 31
DILUPBiCGStab:  Solving for ILambda_198_0, Initial residual = 1, Final residual = 8.31628923847e-62, No Iterations 32
DILUPBiCGStab:  Solving for ILambda_199_0, Initial residual = 1, Final residual = 9.34826471869e-61, No Iterations 31
DILUPBiCGStab:  Solving for ILambda_200_0, Initial residual = 1, Final residual = 3.80223419889e-62, No Iterations 31
DILUPBiCGStab:  Solving for ILambda_201_0, Initial residual = 1, Final residual = 7.1841400145e-62, No Iterations 30
DILUPBiCGStab:  Solving for ILambda_202_0, Initial residual = 1, Final residual = 5.33533959078e-62, No Iterations 30
DILUPBiCGStab:  Solving for ILambda_203_0, Initial residual = 1, Final residual = 1.29034175632e-61, No Iterations 29
DILUPBiCGStab:  Solving for ILambda_204_0, Initial residual = 1, Final residual = 5.78026199073e-61, No Iterations 41
DILUPBiCGStab:  Solving for ILambda_205_0, Initial residual = 1, Final residual = 3.36088897753e-61, No Iterations 55
DILUPBiCGStab:  Solving for ILambda_206_0, Initial residual = 1, Final residual = 3.73634716881e-61, No Iterations 66
DILUPBiCGStab:  Solving for ILambda_207_0, Initial residual = 1, Final residual = 7.49614052057e-61, No Iterations 74
DILUPBiCGStab:  Solving for ILambda_208_0, Initial residual = 1, Final residual = 8.72335761073e-61, No Iterations 75
DILUPBiCGStab:  Solving for ILambda_209_0, Initial residual = 1, Final residual = 2.75100966459e-61, No Iterations 77
DILUPBiCGStab:  Solving for ILambda_210_0, Initial residual = 1, Final residual = 3.57328408629e-61, No Iterations 75
DILUPBiCGStab:  Solving for ILambda_211_0, Initial residual = 1, Final residual = 6.95185225136e-61, No Iterations 74
DILUPBiCGStab:  Solving for ILambda_212_0, Initial residual = 1, Final residual = 2.09922512385e-62, No Iterations 73
DILUPBiCGStab:  Solving for ILambda_213_0, Initial residual = 1, Final residual = 7.70700012658e-61, No Iterations 67
DILUPBiCGStab:  Solving for ILambda_214_0, Initial residual = 1, Final residual = 6.38248775665e-61, No Iterations 56
DILUPBiCGStab:  Solving for ILambda_215_0, Initial residual = 1, Final residual = 2.72815900718e-61, No Iterations 39
DILUPBiCGStab:  Solving for ILambda_216_0, Initial residual = 1, Final residual = 2.39740135311e-62, No Iterations 2
DILUPBiCGStab:  Solving for ILambda_217_0, Initial residual = 1, Final residual = 4.25142546293e-62, No Iterations 2
DILUPBiCGStab:  Solving for ILambda_218_0, Initial residual = 1, Final residual = 3.25029763698e-62, No Iterations 2
DILUPBiCGStab:  Solving for ILambda_219_0, Initial residual = 1, Final residual = 2.32201920337e-62, No Iterations 2
DILUPBiCGStab:  Solving for ILambda_220_0, Initial residual = 1, Final residual = 1.99547782344e-62, No Iterations 2
DILUPBiCGStab:  Solving for ILambda_221_0, Initial residual = 1, Final residual = 6.45815766699e-62, No Iterations 2
DILUPBiCGStab:  Solving for ILambda_222_0, Initial residual = 1, Final residual = 1.8022269057e-62, No Iterations 2
DILUPBiCGStab:  Solving for ILambda_223_0, Initial residual = 1, Final residual = 5.3950104801e-62, No Iterations 2
DILUPBiCGStab:  Solving for ILambda_224_0, Initial residual = 1, Final residual = 2.20198803861e-62, No Iterations 2
DILUPBiCGStab:  Solving for ILambda_225_0, Initial residual = 1, Final residual = 3.16776285061e-62, No Iterations 2
DILUPBiCGStab:  Solving for ILambda_226_0, Initial residual = 1, Final residual = 2.06760586839e-62, No Iterations 2
DILUPBiCGStab:  Solving for ILambda_227_0, Initial residual = 1, Final residual = 3.60397914206e-62, No Iterations 2
DILUPBiCGStab:  Solving for ILambda_228_0, Initial residual = 1, Final residual = 1.36060259434e-61, No Iterations 39
DILUPBiCGStab:  Solving for ILambda_229_0, Initial residual = 1, Final residual = 9.02098193691e-61, No Iterations 55
DILUPBiCGStab:  Solving for ILambda_230_0, Initial residual = 1, Final residual = 9.39542197081e-62, No Iterations 68
DILUPBiCGStab:  Solving for ILambda_231_0, Initial residual = 1, Final residual = 1.62896596989e-62, No Iterations 73
DILUPBiCGStab:  Solving for ILambda_232_0, Initial residual = 1, Final residual = 4.21359283629e-61, No Iterations 73
DILUPBiCGStab:  Solving for ILambda_233_0, Initial residual = 1, Final residual = 9.33141528392e-61, No Iterations 75
DILUPBiCGStab:  Solving for ILambda_234_0, Initial residual = 1, Final residual = 1.82995593352e-61, No Iterations 77
DILUPBiCGStab:  Solving for ILambda_235_0, Initial residual = 1, Final residual = 9.81516530938e-61, No Iterations 75
DILUPBiCGStab:  Solving for ILambda_236_0, Initial residual = 1, Final residual = 2.04843887666e-61, No Iterations 74
DILUPBiCGStab:  Solving for ILambda_237_0, Initial residual = 1, Final residual = 7.68188005903e-61, No Iterations 65
DILUPBiCGStab:  Solving for ILambda_238_0, Initial residual = 1, Final residual = 1.84705551108e-61, No Iterations 55
DILUPBiCGStab:  Solving for ILambda_239_0, Initial residual = 1, Final residual = 9.78735143827e-61, No Iterations 40
DILUPBiCGStab:  Solving for ILambda_240_0, Initial residual = 1, Final residual = 6.83766771568e-62, No Iterations 27
DILUPBiCGStab:  Solving for ILambda_241_0, Initial residual = 1, Final residual = 4.10801902979e-61, No Iterations 26
DILUPBiCGStab:  Solving for ILambda_242_0, Initial residual = 1, Final residual = 1.24018470368e-61, No Iterations 27
DILUPBiCGStab:  Solving for ILambda_243_0, Initial residual = 1, Final residual = 6.28078155421e-61, No Iterations 27
DILUPBiCGStab:  Solving for ILambda_244_0, Initial residual = 1, Final residual = 3.94522103717e-61, No Iterations 27
DILUPBiCGStab:  Solving for ILambda_245_0, Initial residual = 1, Final residual = 5.84995824073e-62, No Iterations 27
DILUPBiCGStab:  Solving for ILambda_246_0, Initial residual = 1, Final residual = 3.12419202813e-61, No Iterations 27
DILUPBiCGStab:  Solving for ILambda_247_0, Initial residual = 1, Final residual = 1.2705978176e-61, No Iterations 27
DILUPBiCGStab:  Solving for ILambda_248_0, Initial residual = 1, Final residual = 9.29049786757e-61, No Iterations 27
DILUPBiCGStab:  Solving for ILambda_249_0, Initial residual = 1, Final residual = 6.23168496097e-61, No Iterations 27
DILUPBiCGStab:  Solving for ILambda_250_0, Initial residual = 1, Final residual = 4.22953587571e-61, No Iterations 26
DILUPBiCGStab:  Solving for ILambda_251_0, Initial residual = 1, Final residual = 6.55386938047e-62, No Iterations 27
DILUPBiCGStab:  Solving for ILambda_252_0, Initial residual = 1, Final residual = 2.16487527967e-61, No Iterations 35
DILUPBiCGStab:  Solving for ILambda_253_0, Initial residual = 1, Final residual = 9.76931163568e-61, No Iterations 47
DILUPBiCGStab:  Solving for ILambda_254_0, Initial residual = 1, Final residual = 4.8914679921e-61, No Iterations 56
DILUPBiCGStab:  Solving for ILambda_255_0, Initial residual = 1, Final residual = 1.08973892635e-61, No Iterations 63
DILUPBiCGStab:  Solving for ILambda_256_0, Initial residual = 1, Final residual = 6.3576220365e-62, No Iterations 66
DILUPBiCGStab:  Solving for ILambda_257_0, Initial residual = 1, Final residual = 1.00868117198e-61, No Iterations 67
DILUPBiCGStab:  Solving for ILambda_258_0, Initial residual = 1, Final residual = 1.03516414984e-61, No Iterations 67
DILUPBiCGStab:  Solving for ILambda_259_0, Initial residual = 1, Final residual = 9.4265670445e-62, No Iterations 65
DILUPBiCGStab:  Solving for ILambda_260_0, Initial residual = 1, Final residual = 3.18324156674e-61, No Iterations 63
DILUPBiCGStab:  Solving for ILambda_261_0, Initial residual = 1, Final residual = 9.88042658837e-61, No Iterations 56
DILUPBiCGStab:  Solving for ILambda_262_0, Initial residual = 1, Final residual = 2.7517893068e-61, No Iterations 47
DILUPBiCGStab:  Solving for ILambda_263_0, Initial residual = 1, Final residual = 2.17474777648e-61, No Iterations 33
DILUPBiCGStab:  Solving for ILambda_264_0, Initial residual = 1, Final residual = 1.91903957228e-61, No Iterations 2
DILUPBiCGStab:  Solving for ILambda_265_0, Initial residual = 1, Final residual = 1.18375435094e-62, No Iterations 2
DILUPBiCGStab:  Solving for ILambda_266_0, Initial residual = 1, Final residual = 6.52172652525e-63, No Iterations 2
DILUPBiCGStab:  Solving for ILambda_267_0, Initial residual = 1, Final residual = 6.64286535481e-63, No Iterations 2
DILUPBiCGStab:  Solving for ILambda_268_0, Initial residual = 1, Final residual = 4.73120799465e-62, No Iterations 2
DILUPBiCGStab:  Solving for ILambda_269_0, Initial residual = 1, Final residual = 5.59909385574e-63, No Iterations 2
DILUPBiCGStab:  Solving for ILambda_270_0, Initial residual = 1, Final residual = 8.45547442797e-63, No Iterations 2
DILUPBiCGStab:  Solving for ILambda_271_0, Initial residual = 1, Final residual = 5.93240723535e-63, No Iterations 2
DILUPBiCGStab:  Solving for ILambda_272_0, Initial residual = 1, Final residual = 9.43965631146e-63, No Iterations 2
DILUPBiCGStab:  Solving for ILambda_273_0, Initial residual = 1, Final residual = 6.08552182288e-63, No Iterations 2
DILUPBiCGStab:  Solving for ILambda_274_0, Initial residual = 1, Final residual = 1.04910001803e-62, No Iterations 2
DILUPBiCGStab:  Solving for ILambda_275_0, Initial residual = 1, Final residual = 1.55675369135e-61, No Iterations 2
DILUPBiCGStab:  Solving for ILambda_276_0, Initial residual = 1, Final residual = 1.2148474003e-61, No Iterations 33
DILUPBiCGStab:  Solving for ILambda_277_0, Initial residual = 1, Final residual = 9.10591060123e-62, No Iterations 48
DILUPBiCGStab:  Solving for ILambda_278_0, Initial residual = 1, Final residual = 3.93642102129e-61, No Iterations 57
DILUPBiCGStab:  Solving for ILambda_279_0, Initial residual = 1, Final residual = 3.61159522389e-61, No Iterations 63
DILUPBiCGStab:  Solving for ILambda_280_0, Initial residual = 1, Final residual = 6.61446244868e-61, No Iterations 65
DILUPBiCGStab:  Solving for ILambda_281_0, Initial residual = 1, Final residual = 7.73859484111e-61, No Iterations 67
DILUPBiCGStab:  Solving for ILambda_282_0, Initial residual = 1, Final residual = 1.78693072064e-62, No Iterations 67
DILUPBiCGStab:  Solving for ILambda_283_0, Initial residual = 1, Final residual = 1.5224785505e-61, No Iterations 66
DILUPBiCGStab:  Solving for ILambda_284_0, Initial residual = 1, Final residual = 1.37910187649e-62, No Iterations 63
DILUPBiCGStab:  Solving for ILambda_285_0, Initial residual = 1, Final residual = 3.66833640705e-62, No Iterations 57
[...]
DILUPBiCGStab:  Solving for ILambda_140_0, Initial residual = 1.44912293896e-15, Final residual = 5.90766921726e-61, No Iterations 61
DILUPBiCGStab:  Solving for ILambda_141_0, Initial residual = 1.24402935729e-15, Final residual = 2.27921653615e-61, No Iterations 53
DILUPBiCGStab:  Solving for ILambda_142_0, Initial residual = 1.1486172627e-15, Final residual = 6.28840867362e-61, No Iterations 45
DILUPBiCGStab:  Solving for ILambda_143_0, Initial residual = 1.1922636765e-15, Final residual = 8.20645738853e-61, No Iterations 32
DILUPBiCGStab:  Solving for ILambda_144_0, Initial residual = 1.04193384708e-15, Final residual = 2.61235181098e-61, No Iterations 22
DILUPBiCGStab:  Solving for ILambda_145_0, Initial residual = 9.95896114381e-16, Final residual = 1.12913644063e-61, No Iterations 23
DILUPBiCGStab:  Solving for ILambda_146_0, Initial residual = 1.23860019659e-15, Final residual = 1.46172184956e-61, No Iterations 24
DILUPBiCGStab:  Solving for ILambda_147_0, Initial residual = 1.29403494579e-15, Final residual = 2.11991829052e-61, No Iterations 24
DILUPBiCGStab:  Solving for ILambda_148_0, Initial residual = 1.52292138572e-15, Final residual = 8.54291936772e-62, No Iterations 23
DILUPBiCGStab:  Solving for ILambda_149_0, Initial residual = 1.54559047707e-15, Final residual = 4.94471374417e-61, No Iterations 22
DILUPBiCGStab:  Solving for ILambda_150_0, Initial residual = 1.60138417904e-15, Final residual = 9.71203783945e-62, No Iterations 24
DILUPBiCGStab:  Solving for ILambda_151_0, Initial residual = 1.72473850358e-15, Final residual = 2.08727547519e-61, No Iterations 22
DILUPBiCGStab:  Solving for ILambda_152_0, Initial residual = 1.42234220675e-15, Final residual = 4.15758524021e-61, No Iterations 21
DILUPBiCGStab:  Solving for ILambda_153_0, Initial residual = 1.35786021606e-15, Final residual = 8.65243941608e-62, No Iterations 22
DILUPBiCGStab:  Solving for ILambda_154_0, Initial residual = 1.17588645621e-15, Final residual = 1.97934107449e-61, No Iterations 23
DILUPBiCGStab:  Solving for ILambda_155_0, Initial residual = 1.0762872591e-15, Final residual = 4.6935237622e-61, No Iterations 22
DILUPBiCGStab:  Solving for ILambda_156_0, Initial residual = 1.01503686312e-15, Final residual = 3.17777844652e-61, No Iterations 34
DILUPBiCGStab:  Solving for ILambda_157_0, Initial residual = 9.90152870006e-16, Final residual = 7.00501150253e-61, No Iterations 47
DILUPBiCGStab:  Solving for ILambda_158_0, Initial residual = 1.18995393777e-15, Final residual = 7.5250394459e-62, No Iterations 52
DILUPBiCGStab:  Solving for ILambda_159_0, Initial residual = 1.58416056443e-15, Final residual = 4.13854047371e-61, No Iterations 58
DILUPBiCGStab:  Solving for ILambda_160_0, Initial residual = 1.66400308247e-15, Final residual = 1.42474282232e-61, No Iterations 62
DILUPBiCGStab:  Solving for ILambda_161_0, Initial residual = 1.49030461169e-15, Final residual = 9.99229251003e-62, No Iterations 66
DILUPBiCGStab:  Solving for ILambda_162_0, Initial residual = 1.94755129943e-15, Final residual = 3.48481520111e-61, No Iterations 64
DILUPBiCGStab:  Solving for ILambda_163_0, Initial residual = 1.81155816616e-15, Final residual = 7.50212802588e-61, No Iterations 63
DILUPBiCGStab:  Solving for ILambda_164_0, Initial residual = 1.4497001187e-15, Final residual = 8.29937385801e-61, No Iterations 58
DILUPBiCGStab:  Solving for ILambda_165_0, Initial residual = 1.357251424e-15, Final residual = 2.05908517391e-61, No Iterations 54
DILUPBiCGStab:  Solving for ILambda_166_0, Initial residual = 1.12698933835e-15, Final residual = 2.95246552044e-63, No Iterations 46
DILUPBiCGStab:  Solving for ILambda_167_0, Initial residual = 1.1252241473e-15, Final residual = 6.92341418138e-61, No Iterations 32
DILUPBiCGStab:  Solving for ILambda_168_0, Initial residual = 1.12340083037e-15, Final residual = 3.05944098961e-62, No Iterations 2
DILUPBiCGStab:  Solving for ILambda_169_0, Initial residual = 1.17217455821e-15, Final residual = 2.00168773581e-62, No Iterations 2
DILUPBiCGStab:  Solving for ILambda_170_0, Initial residual = 1.36707061791e-15, Final residual = 1.8246082564e-62, No Iterations 2
DILUPBiCGStab:  Solving for ILambda_171_0, Initial residual = 1.49361268782e-15, Final residual = 2.39021253101e-62, No Iterations 2
DILUPBiCGStab:  Solving for ILambda_172_0, Initial residual = 1.70816039211e-15, Final residual = 7.46741516363e-62, No Iterations 2
DILUPBiCGStab:  Solving for ILambda_173_0, Initial residual = 1.5694353427e-15, Final residual = 3.34505747447e-62, No Iterations 2
DILUPBiCGStab:  Solving for ILambda_174_0, Initial residual = 1.49345870524e-15, Final residual = 3.32766800675e-62, No Iterations 2
DILUPBiCGStab:  Solving for ILambda_175_0, Initial residual = 1.47139126769e-15, Final residual = 4.04715549729e-62, No Iterations 2
DILUPBiCGStab:  Solving for ILambda_176_0, Initial residual = 1.34042755225e-15, Final residual = 2.23108662472e-62, No Iterations 2
DILUPBiCGStab:  Solving for ILambda_177_0, Initial residual = 1.23935379346e-15, Final residual = 1.55710353653e-62, No Iterations 2
DILUPBiCGStab:  Solving for ILambda_178_0, Initial residual = 1.0014058355e-15, Final residual = 1.48296761871e-62, No Iterations 2
DILUPBiCGStab:  Solving for ILambda_179_0, Initial residual = 1.05046611371e-15, Final residual = 1.54827556702e-62, No Iterations 2
DILUPBiCGStab:  Solving for ILambda_180_0, Initial residual = 1.10428455568e-15, Final residual = 2.41828765542e-63, No Iterations 32
DILUPBiCGStab:  Solving for ILambda_181_0, Initial residual = 1.12293786287e-15, Final residual = 4.92569225977e-61, No Iterations 45
DILUPBiCGStab:  Solving for ILambda_182_0, Initial residual = 1.33940372104e-15, Final residual = 3.7390797817e-61, No Iterations 53
DILUPBiCGStab:  Solving for ILambda_183_0, Initial residual = 1.5533762851e-15, Final residual = 8.95320958312e-61, No Iterations 60
DILUPBiCGStab:  Solving for ILambda_184_0, Initial residual = 1.73134853733e-15, Final residual = 7.56554221941e-61, No Iterations 63
DILUPBiCGStab:  Solving for ILambda_185_0, Initial residual = 1.60271699516e-15, Final residual = 1.35508646713e-61, No Iterations 66
DILUPBiCGStab:  Solving for ILambda_186_0, Initial residual = 1.70600667547e-15, Final residual = 4.26492988964e-61, No Iterations 68
DILUPBiCGStab:  Solving for ILambda_187_0, Initial residual = 1.81266459729e-15, Final residual = 9.76835751616e-61, No Iterations 63
DILUPBiCGStab:  Solving for ILambda_188_0, Initial residual = 1.22961719949e-15, Final residual = 3.91634690007e-61, No Iterations 58
DILUPBiCGStab:  Solving for ILambda_189_0, Initial residual = 1.12690571867e-15, Final residual = 2.36728761741e-61, No Iterations 53
DILUPBiCGStab:  Solving for ILambda_190_0, Initial residual = 9.79699390231e-16, Final residual = 5.25111918022e-61, No Iterations 47
DILUPBiCGStab:  Solving for ILambda_191_0, Initial residual = 1.01036231905e-15, Final residual = 4.16754128532e-61, No Iterations 34
DILUPBiCGStab:  Solving for ILambda_192_0, Initial residual = 3.42970707132e-16, Final residual = 2.16472076039e-61, No Iterations 20
DILUPBiCGStab:  Solving for ILambda_193_0, Initial residual = 3.50960465598e-16, Final residual = 3.07664048943e-62, No Iterations 21
DILUPBiCGStab:  Solving for ILambda_194_0, Initial residual = 3.28192458289e-16, Final residual = 1.70398345026e-61, No Iterations 21
DILUPBiCGStab:  Solving for ILambda_195_0, Initial residual = 3.52827631871e-16, Final residual = 7.19085214233e-61, No Iterations 22
DILUPBiCGStab:  Solving for ILambda_196_0, Initial residual = 3.64855609038e-16, Final residual = 7.00286474422e-61, No Iterations 20
DILUPBiCGStab:  Solving for ILambda_197_0, Initial residual = 5.40187212955e-16, Final residual = 2.21602891992e-62, No Iterations 22
DILUPBiCGStab:  Solving for ILambda_198_0, Initial residual = 4.79940763015e-16, Final residual = 4.69618396857e-62, No Iterations 22
DILUPBiCGStab:  Solving for ILambda_199_0, Initial residual = 4.17117399273e-16, Final residual = 3.97913696573e-61, No Iterations 22
DILUPBiCGStab:  Solving for ILambda_200_0, Initial residual = 4.07186032624e-16, Final residual = 2.1420817985e-62, No Iterations 21
DILUPBiCGStab:  Solving for ILambda_201_0, Initial residual = 3.76415519947e-16, Final residual = 5.56201438049e-61, No Iterations 21
DILUPBiCGStab:  Solving for ILambda_202_0, Initial residual = 3.79010789289e-16, Final residual = 5.17422917339e-62, No Iterations 21
DILUPBiCGStab:  Solving for ILambda_203_0, Initial residual = 3.62736054096e-16, Final residual = 7.22358005079e-61, No Iterations 20
DILUPBiCGStab:  Solving for ILambda_204_0, Initial residual = 3.44300973874e-16, Final residual = 5.46246128183e-61, No Iterations 31
DILUPBiCGStab:  Solving for ILambda_205_0, Initial residual = 3.51438219503e-16, Final residual = 3.46658457936e-61, No Iterations 42
DILUPBiCGStab:  Solving for ILambda_206_0, Initial residual = 3.34225312289e-16, Final residual = 3.65064366291e-61, No Iterations 49
DILUPBiCGStab:  Solving for ILambda_207_0, Initial residual = 3.55881789702e-16, Final residual = 8.06431630624e-61, No Iterations 54
DILUPBiCGStab:  Solving for ILambda_208_0, Initial residual = 3.77814110085e-16, Final residual = 4.36850052187e-61, No Iterations 60
DILUPBiCGStab:  Solving for ILambda_209_0, Initial residual = 4.52717968233e-16, Final residual = 8.39743638828e-61, No Iterations 63
DILUPBiCGStab:  Solving for ILambda_210_0, Initial residual = 4.55205143842e-16, Final residual = 7.7498091759e-62, No Iterations 64
DILUPBiCGStab:  Solving for ILambda_211_0, Initial residual = 4.30000948534e-16, Final residual = 9.32646427805e-62, No Iterations 60
DILUPBiCGStab:  Solving for ILambda_212_0, Initial residual = 4.14213654891e-16, Final residual = 8.60855612946e-61, No Iterations 57
DILUPBiCGStab:  Solving for ILambda_213_0, Initial residual = 3.87752105124e-16, Final residual = 8.67764580956e-61, No Iterations 50
DILUPBiCGStab:  Solving for ILambda_214_0, Initial residual = 3.92947232693e-16, Final residual = 6.36899537944e-61, No Iterations 42
DILUPBiCGStab:  Solving for ILambda_215_0, Initial residual = 3.69584199977e-16, Final residual = 7.61890654326e-62, No Iterations 30
DILUPBiCGStab:  Solving for ILambda_216_0, Initial residual = 3.68028568e-16, Final residual = 4.30320499284e-63, No Iterations 2
DILUPBiCGStab:  Solving for ILambda_217_0, Initial residual = 3.96565313489e-16, Final residual = 4.51477740925e-63, No Iterations 2
DILUPBiCGStab:  Solving for ILambda_218_0, Initial residual = 3.8989205511e-16, Final residual = 5.41809135553e-63, No Iterations 2
DILUPBiCGStab:  Solving for ILambda_219_0, Initial residual = 4.25569105484e-16, Final residual = 3.14529161265e-63, No Iterations 2
DILUPBiCGStab:  Solving for ILambda_220_0, Initial residual = 4.32491693276e-16, Final residual = 3.49575449575e-63, No Iterations 2
DILUPBiCGStab:  Solving for ILambda_221_0, Initial residual = 4.70847122796e-16, Final residual = 3.24404161172e-63, No Iterations 2
DILUPBiCGStab:  Solving for ILambda_222_0, Initial residual = 4.63130657919e-16, Final residual = 3.46564933751e-63, No Iterations 2
DILUPBiCGStab:  Solving for ILambda_223_0, Initial residual = 3.83570611239e-16, Final residual = 2.27614075937e-63, No Iterations 2
DILUPBiCGStab:  Solving for ILambda_224_0, Initial residual = 3.58695795891e-16, Final residual = 2.8443600323e-63, No Iterations 2
DILUPBiCGStab:  Solving for ILambda_225_0, Initial residual = 3.51126685206e-16, Final residual = 3.4360257673e-63, No Iterations 2
DILUPBiCGStab:  Solving for ILambda_226_0, Initial residual = 3.64473711841e-16, Final residual = 3.7708631614e-63, No Iterations 2
DILUPBiCGStab:  Solving for ILambda_227_0, Initial residual = 3.56370760881e-16, Final residual = 3.62417492857e-63, No Iterations 2
DILUPBiCGStab:  Solving for ILambda_228_0, Initial residual = 3.65722908282e-16, Final residual = 5.79141677746e-61, No Iterations 29
DILUPBiCGStab:  Solving for ILambda_229_0, Initial residual = 3.83545117434e-16, Final residual = 1.8033705399e-61, No Iterations 43
DILUPBiCGStab:  Solving for ILambda_230_0, Initial residual = 3.83076031423e-16, Final residual = 3.75377182296e-61, No Iterations 50
DILUPBiCGStab:  Solving for ILambda_231_0, Initial residual = 4.04304212914e-16, Final residual = 7.00659715877e-61, No Iterations 56
DILUPBiCGStab:  Solving for ILambda_232_0, Initial residual = 4.24575866844e-16, Final residual = 8.38496235398e-61, No Iterations 60
DILUPBiCGStab:  Solving for ILambda_233_0, Initial residual = 4.7429949386e-16, Final residual = 4.53862899829e-61, No Iterations 64
DILUPBiCGStab:  Solving for ILambda_234_0, Initial residual = 4.62181778499e-16, Final residual = 9.92926496463e-61, No Iterations 63
DILUPBiCGStab:  Solving for ILambda_235_0, Initial residual = 3.71044995e-16, Final residual = 6.5366557711e-61, No Iterations 60
DILUPBiCGStab:  Solving for ILambda_236_0, Initial residual = 3.55081794104e-16, Final residual = 7.82062307223e-62, No Iterations 57
DILUPBiCGStab:  Solving for ILambda_237_0, Initial residual = 3.22661322371e-16, Final residual = 6.66636576663e-61, No Iterations 50
DILUPBiCGStab:  Solving for ILambda_238_0, Initial residual = 3.53971283961e-16, Final residual = 3.70550806361e-61, No Iterations 43
DILUPBiCGStab:  Solving for ILambda_239_0, Initial residual = 3.48214782807e-16, Final residual = 1.44546099679e-63, No Iterations 33
DILUPBiCGStab:  Solving for ILambda_240_0, Initial residual = 1.68659875166e-16, Final residual = 3.06039836334e-62, No Iterations 17
DILUPBiCGStab:  Solving for ILambda_241_0, Initial residual = 1.80518573468e-16, Final residual = 4.37519048962e-61, No Iterations 17
DILUPBiCGStab:  Solving for ILambda_242_0, Initial residual = 1.9153036757e-16, Final residual = 5.4730078859e-62, No Iterations 17
DILUPBiCGStab:  Solving for ILambda_243_0, Initial residual = 1.97357741502e-16, Final residual = 8.61776367212e-61, No Iterations 17
DILUPBiCGStab:  Solving for ILambda_244_0, Initial residual = 2.0362207925e-16, Final residual = 4.97994714921e-61, No Iterations 17
DILUPBiCGStab:  Solving for ILambda_245_0, Initial residual = 2.06164831354e-16, Final residual = 5.298160914e-61, No Iterations 18
DILUPBiCGStab:  Solving for ILambda_246_0, Initial residual = 2.2157124755e-16, Final residual = 6.35287147493e-61, No Iterations 17
DILUPBiCGStab:  Solving for ILambda_247_0, Initial residual = 2.11060661653e-16, Final residual = 3.23637603607e-61, No Iterations 18
DILUPBiCGStab:  Solving for ILambda_248_0, Initial residual = 2.0957641233e-16, Final residual = 1.7174971801e-61, No Iterations 17
DILUPBiCGStab:  Solving for ILambda_249_0, Initial residual = 1.96572022434e-16, Final residual = 1.15669764535e-62, No Iterations 18
DILUPBiCGStab:  Solving for ILambda_250_0, Initial residual = 1.85688717108e-16, Final residual = 7.82753422314e-61, No Iterations 17
DILUPBiCGStab:  Solving for ILambda_251_0, Initial residual = 1.70212957762e-16, Final residual = 7.2183176403e-62, No Iterations 17
DILUPBiCGStab:  Solving for ILambda_252_0, Initial residual = 1.66804945919e-16, Final residual = 4.27132768903e-61, No Iterations 27
DILUPBiCGStab:  Solving for ILambda_253_0, Initial residual = 1.77037649342e-16, Final residual = 2.20441294073e-61, No Iterations 38
DILUPBiCGStab:  Solving for ILambda_254_0, Initial residual = 1.93789628563e-16, Final residual = 3.86811527106e-61, No Iterations 44
DILUPBiCGStab:  Solving for ILambda_255_0, Initial residual = 2.00354283333e-16, Final residual = 7.90583986441e-61, No Iterations 47
DILUPBiCGStab:  Solving for ILambda_256_0, Initial residual = 2.03307485697e-16, Final residual = 1.44905897972e-61, No Iterations 51
DILUPBiCGStab:  Solving for ILambda_257_0, Initial residual = 2.0559020099e-16, Final residual = 6.51013942059e-61, No Iterations 53
DILUPBiCGStab:  Solving for ILambda_258_0, Initial residual = 2.18508421826e-16, Final residual = 3.92538747793e-61, No Iterations 53
DILUPBiCGStab:  Solving for ILambda_259_0, Initial residual = 2.10186224144e-16, Final residual = 9.64018174065e-61, No Iterations 51
DILUPBiCGStab:  Solving for ILambda_260_0, Initial residual = 2.08193118474e-16, Final residual = 1.63546814989e-62, No Iterations 50
DILUPBiCGStab:  Solving for ILambda_261_0, Initial residual = 1.97260865043e-16, Final residual = 3.32494258108e-63, No Iterations 45
DILUPBiCGStab:  Solving for ILambda_262_0, Initial residual = 1.8618635618e-16, Final residual = 1.93009030087e-61, No Iterations 37
DILUPBiCGStab:  Solving for ILambda_263_0, Initial residual = 1.72579802612e-16, Final residual = 3.38828433192e-61, No Iterations 25
DILUPBiCGStab:  Solving for ILambda_264_0, Initial residual = 1.68265740941e-16, Final residual = 1.04149106393e-63, No Iterations 2
DILUPBiCGStab:  Solving for ILambda_265_0, Initial residual = 1.83927605063e-16, Final residual = 8.16783165398e-64, No Iterations 2
DILUPBiCGStab:  Solving for ILambda_266_0, Initial residual = 2.01696277225e-16, Final residual = 8.22634261249e-64, No Iterations 2
DILUPBiCGStab:  Solving for ILambda_267_0, Initial residual = 2.06732833327e-16, Final residual = 7.98615265284e-64, No Iterations 2
DILUPBiCGStab:  Solving for ILambda_268_0, Initial residual = 2.13375499141e-16, Final residual = 7.81154563337e-64, No Iterations 2
DILUPBiCGStab:  Solving for ILambda_269_0, Initial residual = 2.22799539072e-16, Final residual = 1.05470503794e-63, No Iterations 2
DILUPBiCGStab:  Solving for ILambda_270_0, Initial residual = 2.07015814562e-16, Final residual = 1.26135027584e-63, No Iterations 2
DILUPBiCGStab:  Solving for ILambda_271_0, Initial residual = 2.06505938464e-16, Final residual = 8.01023806899e-64, No Iterations 2
DILUPBiCGStab:  Solving for ILambda_272_0, Initial residual = 1.99175959669e-16, Final residual = 1.00871544475e-63, No Iterations 2
DILUPBiCGStab:  Solving for ILambda_273_0, Initial residual = 1.92857575055e-16, Final residual = 7.48468137859e-64, No Iterations 2
DILUPBiCGStab:  Solving for ILambda_274_0, Initial residual = 1.87667546247e-16, Final residual = 1.07350862426e-63, No Iterations 2
DILUPBiCGStab:  Solving for ILambda_275_0, Initial residual = 1.68815387376e-16, Final residual = 1.45966956828e-63, No Iterations 2
DILUPBiCGStab:  Solving for ILambda_276_0, Initial residual = 1.67165938197e-16, Final residual = 3.19088619431e-61, No Iterations 25
DILUPBiCGStab:  Solving for ILambda_277_0, Initial residual = 1.84162148069e-16, Final residual = 1.05486703041e-62, No Iterations 37
DILUPBiCGStab:  Solving for ILambda_278_0, Initial residual = 1.97011025755e-16, Final residual = 6.64873521478e-61, No Iterations 45
DILUPBiCGStab:  Solving for ILambda_279_0, Initial residual = 2.07817849665e-16, Final residual = 1.11004382921e-62, No Iterations 50
DILUPBiCGStab:  Solving for ILambda_280_0, Initial residual = 2.12805967538e-16, Final residual = 4.27728362699e-61, No Iterations 53
DILUPBiCGStab:  Solving for ILambda_281_0, Initial residual = 2.1631085584e-16, Final residual = 2.21463272426e-61, No Iterations 55
DILUPBiCGStab:  Solving for ILambda_282_0, Initial residual = 2.04048845544e-16, Final residual = 1.77853444073e-61, No Iterations 52
DILUPBiCGStab:  Solving for ILambda_283_0, Initial residual = 2.03943301192e-16, Final residual = 2.35104021353e-62, No Iterations 53
DILUPBiCGStab:  Solving for ILambda_284_0, Initial residual = 1.97988458236e-16, Final residual = 3.66593786525e-61, No Iterations 50
DILUPBiCGStab:  Solving for ILambda_285_0, Initial residual = 1.90777790449e-16, Final residual = 5.66896550471e-61, No Iterations 44
DILUPBiCGStab:  Solving for ILambda_286_0, Initial residual = 1.85864114486e-16, Final residual = 2.61955825679e-61, No Iterations 37
DILUPBiCGStab:  Solving for ILambda_287_0, Initial residual = 1.68176002748e-16, Final residual = 1.99979531667e-61, No Iterations 27
min/max(T) = 1000, 1000
ExecutionTime = 576.52 s  ClockTime = 578 s

writeObjects writeObjects1.writeObjects write:
    writing object a
    writing object qem
End

