/*---------------------------------------------------------------------------*\
| =========                 |                                                 |
| \\      /  F ield         | OpenFOAM: The Open Source CFD Toolbox           |
|  \\    /   O peration     | Version:  2306                                  |
|   \\  /    A nd           | Website:  www.openfoam.com                      |
|    \\/     M anipulation  |                                                 |
\*---------------------------------------------------------------------------*/
Build  : _fbf00d6b-20230626 OPENFOAM=2306 version=2306
Arch   : "LSB;label=32;scalar=64"
Exec   : fireRADFoam_MaCFP
Date   : Mar 13 2024
Time   : 05:53:38
Host   : pop-os
PID    : 199421
I/O    : uncollated
Case   : /home/rafay/Desktop/Study/Radiative_Heat_Transfer/Local_copy_RHT2324/01_Projects/02_Rafay/Case_1_q1D_SolidAngle/new_case3/th_6-ph_12/tau_0.05/res_8
nProcs : 1
trapFpe: Floating point exception trapping enabled (FOAM_SIGFPE).
fileModificationChecking : Monitoring run-time modified files using timeStampMaster (fileModificationSkew 5, maxFileModificationPolls 20)
allowSystemOperations : Allowing user-supplied system call operations

// * * * * * * * * * * * * * * * * * * * * * * * * * * * * * * * * * * * * * //
Create time

Create mesh for time = 0


PIMPLE: no residual control data found. Calculations will employ 10 corrector loops

Reading thermophysical properties

Selecting thermodynamics package 
{
    type            hePsiThermo;
    mixture         singleStepReactingMixture;
    transport       sutherland;
    thermo          janaf;
    energy          sensibleEnthalpy;
    equationOfState perfectGas;
    specie          specie;
}

Selecting chemistryReader foamChemistryReader
    elements not defined in "/home/rafay/Desktop/Study/Radiative_Heat_Transfer/Local_copy_RHT2324/01_Projects/02_Rafay/Case_1_q1D_SolidAngle/new_case3/th_6-ph_12/tau_0.05/res_8/constant/reactions"
Fuel heat of combustion :47168962.4726
stoichiometric air-fuel ratio :14.6914056505
stoichiometric oxygen-fuel ratio :3.42181919285
Maximum products mass concentrations:
    H2O: 0.0818486943001
    CO2: 0.199950099979
    N2: 0.718201205721
Creating component thermo properties:
    multi-component carrier - 6 species
    no liquid components
    no solid components
Creating field rho


Reading field U

Reading/calculating face flux field phi

Selecting radiationModel fvDOM
Selecting absorptionEmissionModel constantAbsorptionEmission
Selecting scatterModel none
Selecting sootModel none
fvDOM : Allocated 288 rays with average orientation:
	I0 : dAve : 	(0.000387488209079 0.00591192763451 0.0163624617374) : omega : 	0.0175372336349 : d : 	(0.0169275754541 0.25826489366 0.965925826289)
	I1 : dAve : 	(0.00115583459655 0.00581077291359 0.0163624617374) : omega : 	0.0175372336349 : d : 	(0.050493090853 0.253845909725 0.965925826289)
	I2 : dAve : 	(0.00190440433361 0.00561019425706 0.0163624617374) : omega : 	0.0175372336349 : d : 	(0.083194655468 0.245083551895 0.965925826289)
	I3 : dAve : 	(0.00262038918453 0.00531362362136 0.0163624617374) : omega : 	0.0175372336349 : d : 	(0.114472736462 0.232127746542 0.965925826289)
	I4 : dAve : 	(0.00329153844998 0.00492613541228 0.0163624617374) : omega : 	0.0175372336349 : d : 	(0.143792157198 0.215200171088 0.965925826289)
	I5 : dAve : 	(0.00390636857998 0.00445435966052 0.0163624617374) : omega : 	0.0175372336349 : d : 	(0.170651254257 0.194590461042 0.965925826289)
	I6 : dAve : 	(0.00445435966052 0.00390636857998 0.0163624617374) : omega : 	0.0175372336349 : d : 	(0.194590461042 0.170651254257 0.965925826289)
	I7 : dAve : 	(0.00492613541228 0.00329153844998 0.0163624617374) : omega : 	0.0175372336349 : d : 	(0.215200171088 0.143792157198 0.965925826289)
	I8 : dAve : 	(0.00531362362136 0.00262038918453 0.0163624617374) : omega : 	0.0175372336349 : d : 	(0.232127746542 0.114472736462 0.965925826289)
	I9 : dAve : 	(0.00561019425706 0.00190440433361 0.0163624617374) : omega : 	0.0175372336349 : d : 	(0.245083551895 0.083194655468 0.965925826289)
	I10 : dAve : 	(0.00581077291359 0.00115583459655 0.0163624617374) : omega : 	0.0175372336349 : d : 	(0.253845909725 0.050493090853 0.965925826289)
	I11 : dAve : 	(0.00591192763451 0.000387488209079 0.0163624617374) : omega : 	0.0175372336349 : d : 	(0.25826489366 0.0169275754541 0.965925826289)
	I12 : dAve : 	(0.00591192763451 -0.000387488209079 0.0163624617374) : omega : 	0.0175372336349 : d : 	(0.25826489366 -0.0169275754541 0.965925826289)
	I13 : dAve : 	(0.00581077291359 -0.00115583459655 0.0163624617374) : omega : 	0.0175372336349 : d : 	(0.253845909725 -0.050493090853 0.965925826289)
	I14 : dAve : 	(0.00561019425706 -0.00190440433361 0.0163624617374) : omega : 	0.0175372336349 : d : 	(0.245083551895 -0.083194655468 0.965925826289)
	I15 : dAve : 	(0.00531362362136 -0.00262038918453 0.0163624617374) : omega : 	0.0175372336349 : d : 	(0.232127746542 -0.114472736462 0.965925826289)
	I16 : dAve : 	(0.00492613541228 -0.00329153844998 0.0163624617374) : omega : 	0.0175372336349 : d : 	(0.215200171088 -0.143792157198 0.965925826289)
	I17 : dAve : 	(0.00445435966052 -0.00390636857998 0.0163624617374) : omega : 	0.0175372336349 : d : 	(0.194590461042 -0.170651254257 0.965925826289)
	I18 : dAve : 	(0.00390636857998 -0.00445435966052 0.0163624617374) : omega : 	0.0175372336349 : d : 	(0.170651254257 -0.194590461042 0.965925826289)
	I19 : dAve : 	(0.00329153844998 -0.00492613541228 0.0163624617374) : omega : 	0.0175372336349 : d : 	(0.143792157198 -0.215200171088 0.965925826289)
	I20 : dAve : 	(0.00262038918453 -0.00531362362136 0.0163624617374) : omega : 	0.0175372336349 : d : 	(0.114472736462 -0.232127746542 0.965925826289)
	I21 : dAve : 	(0.00190440433361 -0.00561019425706 0.0163624617374) : omega : 	0.0175372336349 : d : 	(0.083194655468 -0.245083551895 0.965925826289)
	I22 : dAve : 	(0.00115583459655 -0.00581077291359 0.0163624617374) : omega : 	0.0175372336349 : d : 	(0.050493090853 -0.253845909725 0.965925826289)
	I23 : dAve : 	(0.000387488209079 -0.00591192763451 0.0163624617374) : omega : 	0.0175372336349 : d : 	(0.0169275754541 -0.25826489366 0.965925826289)
	I24 : dAve : 	(-0.000387488209079 -0.00591192763451 0.0163624617374) : omega : 	0.0175372336349 : d : 	(-0.0169275754541 -0.25826489366 0.965925826289)
	I25 : dAve : 	(-0.00115583459655 -0.00581077291359 0.0163624617374) : omega : 	0.0175372336349 : d : 	(-0.050493090853 -0.253845909725 0.965925826289)
	I26 : dAve : 	(-0.00190440433361 -0.00561019425706 0.0163624617374) : omega : 	0.0175372336349 : d : 	(-0.083194655468 -0.245083551895 0.965925826289)
	I27 : dAve : 	(-0.00262038918453 -0.00531362362136 0.0163624617374) : omega : 	0.0175372336349 : d : 	(-0.114472736462 -0.232127746542 0.965925826289)
	I28 : dAve : 	(-0.00329153844998 -0.00492613541228 0.0163624617374) : omega : 	0.0175372336349 : d : 	(-0.143792157198 -0.215200171088 0.965925826289)
	I29 : dAve : 	(-0.00390636857998 -0.00445435966052 0.0163624617374) : omega : 	0.0175372336349 : d : 	(-0.170651254257 -0.194590461042 0.965925826289)
	I30 : dAve : 	(-0.00445435966052 -0.00390636857998 0.0163624617374) : omega : 	0.0175372336349 : d : 	(-0.194590461042 -0.170651254257 0.965925826289)
	I31 : dAve : 	(-0.00492613541228 -0.00329153844998 0.0163624617374) : omega : 	0.0175372336349 : d : 	(-0.215200171088 -0.143792157198 0.965925826289)
	I32 : dAve : 	(-0.00531362362136 -0.00262038918453 0.0163624617374) : omega : 	0.0175372336349 : d : 	(-0.232127746542 -0.114472736462 0.965925826289)
	I33 : dAve : 	(-0.00561019425706 -0.00190440433361 0.0163624617374) : omega : 	0.0175372336349 : d : 	(-0.245083551895 -0.083194655468 0.965925826289)
	I34 : dAve : 	(-0.00581077291359 -0.00115583459655 0.0163624617374) : omega : 	0.0175372336349 : d : 	(-0.253845909725 -0.050493090853 0.965925826289)
	I35 : dAve : 	(-0.00591192763451 -0.000387488209079 0.0163624617374) : omega : 	0.0175372336349 : d : 	(-0.25826489366 -0.0169275754541 0.965925826289)
	I36 : dAve : 	(-0.00591192763451 0.000387488209079 0.0163624617374) : omega : 	0.0175372336349 : d : 	(-0.25826489366 0.0169275754541 0.965925826289)
	I37 : dAve : 	(-0.00581077291359 0.00115583459655 0.0163624617374) : omega : 	0.0175372336349 : d : 	(-0.253845909725 0.050493090853 0.965925826289)
	I38 : dAve : 	(-0.00561019425706 0.00190440433361 0.0163624617374) : omega : 	0.0175372336349 : d : 	(-0.245083551895 0.083194655468 0.965925826289)
	I39 : dAve : 	(-0.00531362362136 0.00262038918453 0.0163624617374) : omega : 	0.0175372336349 : d : 	(-0.232127746542 0.114472736462 0.965925826289)
	I40 : dAve : 	(-0.00492613541228 0.00329153844998 0.0163624617374) : omega : 	0.0175372336349 : d : 	(-0.215200171088 0.143792157198 0.965925826289)
	I41 : dAve : 	(-0.00445435966052 0.00390636857998 0.0163624617374) : omega : 	0.0175372336349 : d : 	(-0.194590461042 0.170651254257 0.965925826289)
	I42 : dAve : 	(-0.00390636857998 0.00445435966052 0.0163624617374) : omega : 	0.0175372336349 : d : 	(-0.170651254257 0.194590461042 0.965925826289)
	I43 : dAve : 	(-0.00329153844998 0.00492613541228 0.0163624617374) : omega : 	0.0175372336349 : d : 	(-0.143792157198 0.215200171088 0.965925826289)
	I44 : dAve : 	(-0.00262038918453 0.00531362362136 0.0163624617374) : omega : 	0.0175372336349 : d : 	(-0.114472736462 0.232127746542 0.965925826289)
	I45 : dAve : 	(-0.00190440433361 0.00561019425706 0.0163624617374) : omega : 	0.0175372336349 : d : 	(-0.083194655468 0.245083551895 0.965925826289)
	I46 : dAve : 	(-0.00115583459655 0.00581077291359 0.0163624617374) : omega : 	0.0175372336349 : d : 	(-0.050493090853 0.253845909725 0.965925826289)
	I47 : dAve : 	(-0.000387488209079 0.00591192763451 0.0163624617374) : omega : 	0.0175372336349 : d : 	(-0.0169275754541 0.25826489366 0.965925826289)
	I48 : dAve : 	(0.00223973005487 0.034171677215 0.0327249234749) : omega : 	0.0479126133149 : d : 	(0.0462469961895 0.70559281129 0.707106781187)
	I49 : dAve : 	(0.00668086776241 0.0335869903436 0.0327249234749) : omega : 	0.0479126133149 : d : 	(0.137949689641 0.693519922661 0.707106781187)
	I50 : dAve : 	(0.0110076939702 0.0324276207555 0.0327249234749) : omega : 	0.0479126133149 : d : 	(0.227292025657 0.669580715876 0.707106781187)
	I51 : dAve : 	(0.0151461754823 0.0307134055855 0.0327249234749) : omega : 	0.0479126133149 : d : 	(0.312745332096 0.634184797399 0.707106781187)
	I52 : dAve : 	(0.0190255017326 0.0284736755306 0.0327249234749) : omega : 	0.0479126133149 : d : 	(0.392847479194 0.58793780121 0.707106781187)
	I53 : dAve : 	(0.0225792963734 0.025746752993 0.0327249234749) : omega : 	0.0479126133149 : d : 	(0.466227897004 0.531631026234 0.707106781187)
	I54 : dAve : 	(0.025746752993 0.0225792963734 0.0327249234749) : omega : 	0.0479126133149 : d : 	(0.531631026234 0.466227897004 0.707106781187)
	I55 : dAve : 	(0.0284736755306 0.0190255017326 0.0327249234749) : omega : 	0.0479126133149 : d : 	(0.58793780121 0.392847479194 0.707106781187)
	I56 : dAve : 	(0.0307134055855 0.0151461754823 0.0327249234749) : omega : 	0.0479126133149 : d : 	(0.634184797399 0.312745332096 0.707106781187)
	I57 : dAve : 	(0.0324276207555 0.0110076939702 0.0327249234749) : omega : 	0.0479126133149 : d : 	(0.669580715876 0.227292025657 0.707106781187)
	I58 : dAve : 	(0.0335869903436 0.00668086776241 0.0327249234749) : omega : 	0.0479126133149 : d : 	(0.693519922661 0.137949689641 0.707106781187)
	I59 : dAve : 	(0.034171677215 0.00223973005487 0.0327249234749) : omega : 	0.0479126133149 : d : 	(0.70559281129 0.0462469961895 0.707106781187)
	I60 : dAve : 	(0.034171677215 -0.00223973005487 0.0327249234749) : omega : 	0.0479126133149 : d : 	(0.70559281129 -0.0462469961895 0.707106781187)
	I61 : dAve : 	(0.0335869903436 -0.00668086776241 0.0327249234749) : omega : 	0.0479126133149 : d : 	(0.693519922661 -0.137949689641 0.707106781187)
	I62 : dAve : 	(0.0324276207555 -0.0110076939702 0.0327249234749) : omega : 	0.0479126133149 : d : 	(0.669580715876 -0.227292025657 0.707106781187)
	I63 : dAve : 	(0.0307134055855 -0.0151461754823 0.0327249234749) : omega : 	0.0479126133149 : d : 	(0.634184797399 -0.312745332096 0.707106781187)
	I64 : dAve : 	(0.0284736755306 -0.0190255017326 0.0327249234749) : omega : 	0.0479126133149 : d : 	(0.58793780121 -0.392847479194 0.707106781187)
	I65 : dAve : 	(0.025746752993 -0.0225792963734 0.0327249234749) : omega : 	0.0479126133149 : d : 	(0.531631026234 -0.466227897004 0.707106781187)
	I66 : dAve : 	(0.0225792963734 -0.025746752993 0.0327249234749) : omega : 	0.0479126133149 : d : 	(0.466227897004 -0.531631026234 0.707106781187)
	I67 : dAve : 	(0.0190255017326 -0.0284736755306 0.0327249234749) : omega : 	0.0479126133149 : d : 	(0.392847479194 -0.58793780121 0.707106781187)
	I68 : dAve : 	(0.0151461754823 -0.0307134055855 0.0327249234749) : omega : 	0.0479126133149 : d : 	(0.312745332096 -0.634184797399 0.707106781187)
	I69 : dAve : 	(0.0110076939702 -0.0324276207555 0.0327249234749) : omega : 	0.0479126133149 : d : 	(0.227292025657 -0.669580715876 0.707106781187)
	I70 : dAve : 	(0.00668086776241 -0.0335869903436 0.0327249234749) : omega : 	0.0479126133149 : d : 	(0.137949689641 -0.693519922661 0.707106781187)
	I71 : dAve : 	(0.00223973005487 -0.034171677215 0.0327249234749) : omega : 	0.0479126133149 : d : 	(0.0462469961895 -0.70559281129 0.707106781187)
	I72 : dAve : 	(-0.00223973005487 -0.034171677215 0.0327249234749) : omega : 	0.0479126133149 : d : 	(-0.0462469961895 -0.70559281129 0.707106781187)
	I73 : dAve : 	(-0.00668086776241 -0.0335869903436 0.0327249234749) : omega : 	0.0479126133149 : d : 	(-0.137949689641 -0.693519922661 0.707106781187)
	I74 : dAve : 	(-0.0110076939702 -0.0324276207555 0.0327249234749) : omega : 	0.0479126133149 : d : 	(-0.227292025657 -0.669580715876 0.707106781187)
	I75 : dAve : 	(-0.0151461754823 -0.0307134055855 0.0327249234749) : omega : 	0.0479126133149 : d : 	(-0.312745332096 -0.634184797399 0.707106781187)
	I76 : dAve : 	(-0.0190255017326 -0.0284736755306 0.0327249234749) : omega : 	0.0479126133149 : d : 	(-0.392847479194 -0.58793780121 0.707106781187)
	I77 : dAve : 	(-0.0225792963734 -0.025746752993 0.0327249234749) : omega : 	0.0479126133149 : d : 	(-0.466227897004 -0.531631026234 0.707106781187)
	I78 : dAve : 	(-0.025746752993 -0.0225792963734 0.0327249234749) : omega : 	0.0479126133149 : d : 	(-0.531631026234 -0.466227897004 0.707106781187)
	I79 : dAve : 	(-0.0284736755306 -0.0190255017326 0.0327249234749) : omega : 	0.0479126133149 : d : 	(-0.58793780121 -0.392847479194 0.707106781187)
	I80 : dAve : 	(-0.0307134055855 -0.0151461754823 0.0327249234749) : omega : 	0.0479126133149 : d : 	(-0.634184797399 -0.312745332096 0.707106781187)
	I81 : dAve : 	(-0.0324276207555 -0.0110076939702 0.0327249234749) : omega : 	0.0479126133149 : d : 	(-0.669580715876 -0.227292025657 0.707106781187)
	I82 : dAve : 	(-0.0335869903436 -0.00668086776241 0.0327249234749) : omega : 	0.0479126133149 : d : 	(-0.693519922661 -0.137949689641 0.707106781187)
	I83 : dAve : 	(-0.034171677215 -0.00223973005487 0.0327249234749) : omega : 	0.0479126133149 : d : 	(-0.70559281129 -0.0462469961895 0.707106781187)
	I84 : dAve : 	(-0.034171677215 0.00223973005487 0.0327249234749) : omega : 	0.0479126133149 : d : 	(-0.70559281129 0.0462469961895 0.707106781187)
	I85 : dAve : 	(-0.0335869903436 0.00668086776241 0.0327249234749) : omega : 	0.0479126133149 : d : 	(-0.693519922661 0.137949689641 0.707106781187)
	I86 : dAve : 	(-0.0324276207555 0.0110076939702 0.0327249234749) : omega : 	0.0479126133149 : d : 	(-0.669580715876 0.227292025657 0.707106781187)
	I87 : dAve : 	(-0.0307134055855 0.0151461754823 0.0327249234749) : omega : 	0.0479126133149 : d : 	(-0.634184797399 0.312745332096 0.707106781187)
	I88 : dAve : 	(-0.0284736755306 0.0190255017326 0.0327249234749) : omega : 	0.0479126133149 : d : 	(-0.58793780121 0.392847479194 0.707106781187)
	I89 : dAve : 	(-0.025746752993 0.0225792963734 0.0327249234749) : omega : 	0.0479126133149 : d : 	(-0.531631026234 0.466227897004 0.707106781187)
	I90 : dAve : 	(-0.0225792963734 0.025746752993 0.0327249234749) : omega : 	0.0479126133149 : d : 	(-0.466227897004 0.531631026234 0.707106781187)
	I91 : dAve : 	(-0.0190255017326 0.0284736755306 0.0327249234749) : omega : 	0.0479126133149 : d : 	(-0.392847479194 0.58793780121 0.707106781187)
	I92 : dAve : 	(-0.0151461754823 0.0307134055855 0.0327249234749) : omega : 	0.0479126133149 : d : 	(-0.312745332096 0.634184797399 0.707106781187)
	I93 : dAve : 	(-0.0110076939702 0.0324276207555 0.0327249234749) : omega : 	0.0479126133149 : d : 	(-0.227292025657 0.669580715876 0.707106781187)
	I94 : dAve : 	(-0.00668086776241 0.0335869903436 0.0327249234749) : omega : 	0.0479126133149 : d : 	(-0.137949689641 0.693519922661 0.707106781187)
	I95 : dAve : 	(-0.00223973005487 0.034171677215 0.0327249234749) : omega : 	0.0479126133149 : d : 	(-0.0462469961895 0.70559281129 0.707106781187)
	I96 : dAve : 	(0.00409197190067 0.0624314267954 0.0163624617374) : omega : 	0.0654498469498 : d : 	(0.0631745716435 0.963857704949 0.258819045103)
	I97 : dAve : 	(0.0122059009283 0.0613632077737 0.0163624617374) : omega : 	0.0654498469498 : d : 	(0.188442780494 0.947365832386 0.258819045103)
	I98 : dAve : 	(0.0201109836069 0.0592450472539 0.0163624617374) : omega : 	0.0654498469498 : d : 	(0.310486681125 0.914664267771 0.258819045103)
	I99 : dAve : 	(0.0276719617802 0.0561131875497 0.0163624617374) : omega : 	0.0654498469498 : d : 	(0.427218068558 0.866312543941 0.258819045103)
	I100 : dAve : 	(0.0347594650153 0.052021215649 0.0163624617374) : omega : 	0.0654498469498 : d : 	(0.536639636391 0.803137972298 0.258819045103)
	I101 : dAve : 	(0.0412522241668 0.0470391463256 0.0163624617374) : omega : 	0.0654498469498 : d : 	(0.636879151261 0.726221487276 0.258819045103)
	I102 : dAve : 	(0.0470391463256 0.0412522241668 0.0163624617374) : omega : 	0.0654498469498 : d : 	(0.726221487276 0.636879151261 0.258819045103)
	I103 : dAve : 	(0.052021215649 0.0347594650153 0.0163624617374) : omega : 	0.0654498469498 : d : 	(0.803137972298 0.536639636391 0.258819045103)
	I104 : dAve : 	(0.0561131875497 0.0276719617802 0.0163624617374) : omega : 	0.0654498469498 : d : 	(0.866312543941 0.427218068558 0.258819045103)
	I105 : dAve : 	(0.0592450472539 0.0201109836069 0.0163624617374) : omega : 	0.0654498469498 : d : 	(0.914664267771 0.310486681125 0.258819045103)
	I106 : dAve : 	(0.0613632077737 0.0122059009283 0.0163624617374) : omega : 	0.0654498469498 : d : 	(0.947365832386 0.188442780494 0.258819045103)
	I107 : dAve : 	(0.0624314267954 0.00409197190067 0.0163624617374) : omega : 	0.0654498469498 : d : 	(0.963857704949 0.0631745716435 0.258819045103)
	I108 : dAve : 	(0.0624314267954 -0.00409197190067 0.0163624617374) : omega : 	0.0654498469498 : d : 	(0.963857704949 -0.0631745716435 0.258819045103)
	I109 : dAve : 	(0.0613632077737 -0.0122059009283 0.0163624617374) : omega : 	0.0654498469498 : d : 	(0.947365832386 -0.188442780494 0.258819045103)
	I110 : dAve : 	(0.0592450472539 -0.0201109836069 0.0163624617374) : omega : 	0.0654498469498 : d : 	(0.914664267771 -0.310486681125 0.258819045103)
	I111 : dAve : 	(0.0561131875497 -0.0276719617802 0.0163624617374) : omega : 	0.0654498469498 : d : 	(0.866312543941 -0.427218068558 0.258819045103)
	I112 : dAve : 	(0.052021215649 -0.0347594650153 0.0163624617374) : omega : 	0.0654498469498 : d : 	(0.803137972298 -0.536639636391 0.258819045103)
	I113 : dAve : 	(0.0470391463256 -0.0412522241668 0.0163624617374) : omega : 	0.0654498469498 : d : 	(0.726221487276 -0.636879151261 0.258819045103)
	I114 : dAve : 	(0.0412522241668 -0.0470391463256 0.0163624617374) : omega : 	0.0654498469498 : d : 	(0.636879151261 -0.726221487276 0.258819045103)
	I115 : dAve : 	(0.0347594650153 -0.052021215649 0.0163624617374) : omega : 	0.0654498469498 : d : 	(0.536639636391 -0.803137972298 0.258819045103)
	I116 : dAve : 	(0.0276719617802 -0.0561131875497 0.0163624617374) : omega : 	0.0654498469498 : d : 	(0.427218068558 -0.866312543941 0.258819045103)
	I117 : dAve : 	(0.0201109836069 -0.0592450472539 0.0163624617374) : omega : 	0.0654498469498 : d : 	(0.310486681125 -0.914664267771 0.258819045103)
	I118 : dAve : 	(0.0122059009283 -0.0613632077737 0.0163624617374) : omega : 	0.0654498469498 : d : 	(0.188442780494 -0.947365832386 0.258819045103)
	I119 : dAve : 	(0.00409197190067 -0.0624314267954 0.0163624617374) : omega : 	0.0654498469498 : d : 	(0.0631745716435 -0.963857704949 0.258819045103)
	I120 : dAve : 	(-0.00409197190067 -0.0624314267954 0.0163624617374) : omega : 	0.0654498469498 : d : 	(-0.0631745716435 -0.963857704949 0.258819045103)
	I121 : dAve : 	(-0.0122059009283 -0.0613632077737 0.0163624617374) : omega : 	0.0654498469498 : d : 	(-0.188442780494 -0.947365832386 0.258819045103)
	I122 : dAve : 	(-0.0201109836069 -0.0592450472539 0.0163624617374) : omega : 	0.0654498469498 : d : 	(-0.310486681125 -0.914664267771 0.258819045103)
	I123 : dAve : 	(-0.0276719617802 -0.0561131875497 0.0163624617374) : omega : 	0.0654498469498 : d : 	(-0.427218068558 -0.866312543941 0.258819045103)
	I124 : dAve : 	(-0.0347594650153 -0.052021215649 0.0163624617374) : omega : 	0.0654498469498 : d : 	(-0.536639636391 -0.803137972298 0.258819045103)
	I125 : dAve : 	(-0.0412522241668 -0.0470391463256 0.0163624617374) : omega : 	0.0654498469498 : d : 	(-0.636879151261 -0.726221487276 0.258819045103)
	I126 : dAve : 	(-0.0470391463256 -0.0412522241668 0.0163624617374) : omega : 	0.0654498469498 : d : 	(-0.726221487276 -0.636879151261 0.258819045103)
	I127 : dAve : 	(-0.052021215649 -0.0347594650153 0.0163624617374) : omega : 	0.0654498469498 : d : 	(-0.803137972298 -0.536639636391 0.258819045103)
	I128 : dAve : 	(-0.0561131875497 -0.0276719617802 0.0163624617374) : omega : 	0.0654498469498 : d : 	(-0.866312543941 -0.427218068558 0.258819045103)
	I129 : dAve : 	(-0.0592450472539 -0.0201109836069 0.0163624617374) : omega : 	0.0654498469498 : d : 	(-0.914664267771 -0.310486681125 0.258819045103)
	I130 : dAve : 	(-0.0613632077737 -0.0122059009283 0.0163624617374) : omega : 	0.0654498469498 : d : 	(-0.947365832386 -0.188442780494 0.258819045103)
	I131 : dAve : 	(-0.0624314267954 -0.00409197190067 0.0163624617374) : omega : 	0.0654498469498 : d : 	(-0.963857704949 -0.0631745716435 0.258819045103)
	I132 : dAve : 	(-0.0624314267954 0.00409197190067 0.0163624617374) : omega : 	0.0654498469498 : d : 	(-0.963857704949 0.0631745716435 0.258819045103)
	I133 : dAve : 	(-0.0613632077737 0.0122059009283 0.0163624617374) : omega : 	0.0654498469498 : d : 	(-0.947365832386 0.188442780494 0.258819045103)
	I134 : dAve : 	(-0.0592450472539 0.0201109836069 0.0163624617374) : omega : 	0.0654498469498 : d : 	(-0.914664267771 0.310486681125 0.258819045103)
	I135 : dAve : 	(-0.0561131875497 0.0276719617802 0.0163624617374) : omega : 	0.0654498469498 : d : 	(-0.866312543941 0.427218068558 0.258819045103)
	I136 : dAve : 	(-0.052021215649 0.0347594650153 0.0163624617374) : omega : 	0.0654498469498 : d : 	(-0.803137972298 0.536639636391 0.258819045103)
	I137 : dAve : 	(-0.0470391463256 0.0412522241668 0.0163624617374) : omega : 	0.0654498469498 : d : 	(-0.726221487276 0.636879151261 0.258819045103)
	I138 : dAve : 	(-0.0412522241668 0.0470391463256 0.0163624617374) : omega : 	0.0654498469498 : d : 	(-0.636879151261 0.726221487276 0.258819045103)
	I139 : dAve : 	(-0.0347594650153 0.052021215649 0.0163624617374) : omega : 	0.0654498469498 : d : 	(-0.536639636391 0.803137972298 0.258819045103)
	I140 : dAve : 	(-0.0276719617802 0.0561131875497 0.0163624617374) : omega : 	0.0654498469498 : d : 	(-0.427218068558 0.866312543941 0.258819045103)
	I141 : dAve : 	(-0.0201109836069 0.0592450472539 0.0163624617374) : omega : 	0.0654498469498 : d : 	(-0.310486681125 0.914664267771 0.258819045103)
	I142 : dAve : 	(-0.0122059009283 0.0613632077737 0.0163624617374) : omega : 	0.0654498469498 : d : 	(-0.188442780494 0.947365832386 0.258819045103)
	I143 : dAve : 	(-0.00409197190067 0.0624314267954 0.0163624617374) : omega : 	0.0654498469498 : d : 	(-0.0631745716435 0.963857704949 0.258819045103)
	I144 : dAve : 	(0.00409197190067 0.0624314267954 -0.0163624617374) : omega : 	0.0654498469498 : d : 	(0.0631745716435 0.963857704949 -0.258819045103)
	I145 : dAve : 	(0.0122059009283 0.0613632077737 -0.0163624617374) : omega : 	0.0654498469498 : d : 	(0.188442780494 0.947365832386 -0.258819045103)
	I146 : dAve : 	(0.0201109836069 0.0592450472539 -0.0163624617374) : omega : 	0.0654498469498 : d : 	(0.310486681125 0.914664267771 -0.258819045103)
	I147 : dAve : 	(0.0276719617802 0.0561131875497 -0.0163624617374) : omega : 	0.0654498469498 : d : 	(0.427218068558 0.866312543941 -0.258819045103)
	I148 : dAve : 	(0.0347594650153 0.052021215649 -0.0163624617374) : omega : 	0.0654498469498 : d : 	(0.536639636391 0.803137972298 -0.258819045103)
	I149 : dAve : 	(0.0412522241668 0.0470391463256 -0.0163624617374) : omega : 	0.0654498469498 : d : 	(0.636879151261 0.726221487276 -0.258819045103)
	I150 : dAve : 	(0.0470391463256 0.0412522241668 -0.0163624617374) : omega : 	0.0654498469498 : d : 	(0.726221487276 0.636879151261 -0.258819045103)
	I151 : dAve : 	(0.052021215649 0.0347594650153 -0.0163624617374) : omega : 	0.0654498469498 : d : 	(0.803137972298 0.536639636391 -0.258819045103)
	I152 : dAve : 	(0.0561131875497 0.0276719617802 -0.0163624617374) : omega : 	0.0654498469498 : d : 	(0.866312543941 0.427218068558 -0.258819045103)
	I153 : dAve : 	(0.0592450472539 0.0201109836069 -0.0163624617374) : omega : 	0.0654498469498 : d : 	(0.914664267771 0.310486681125 -0.258819045103)
	I154 : dAve : 	(0.0613632077737 0.0122059009283 -0.0163624617374) : omega : 	0.0654498469498 : d : 	(0.947365832386 0.188442780494 -0.258819045103)
	I155 : dAve : 	(0.0624314267954 0.00409197190067 -0.0163624617374) : omega : 	0.0654498469498 : d : 	(0.963857704949 0.0631745716435 -0.258819045103)
	I156 : dAve : 	(0.0624314267954 -0.00409197190067 -0.0163624617374) : omega : 	0.0654498469498 : d : 	(0.963857704949 -0.0631745716435 -0.258819045103)
	I157 : dAve : 	(0.0613632077737 -0.0122059009283 -0.0163624617374) : omega : 	0.0654498469498 : d : 	(0.947365832386 -0.188442780494 -0.258819045103)
	I158 : dAve : 	(0.0592450472539 -0.0201109836069 -0.0163624617374) : omega : 	0.0654498469498 : d : 	(0.914664267771 -0.310486681125 -0.258819045103)
	I159 : dAve : 	(0.0561131875497 -0.0276719617802 -0.0163624617374) : omega : 	0.0654498469498 : d : 	(0.866312543941 -0.427218068558 -0.258819045103)
	I160 : dAve : 	(0.052021215649 -0.0347594650153 -0.0163624617374) : omega : 	0.0654498469498 : d : 	(0.803137972298 -0.536639636391 -0.258819045103)
	I161 : dAve : 	(0.0470391463256 -0.0412522241668 -0.0163624617374) : omega : 	0.0654498469498 : d : 	(0.726221487276 -0.636879151261 -0.258819045103)
	I162 : dAve : 	(0.0412522241668 -0.0470391463256 -0.0163624617374) : omega : 	0.0654498469498 : d : 	(0.636879151261 -0.726221487276 -0.258819045103)
	I163 : dAve : 	(0.0347594650153 -0.052021215649 -0.0163624617374) : omega : 	0.0654498469498 : d : 	(0.536639636391 -0.803137972298 -0.258819045103)
	I164 : dAve : 	(0.0276719617802 -0.0561131875497 -0.0163624617374) : omega : 	0.0654498469498 : d : 	(0.427218068558 -0.866312543941 -0.258819045103)
	I165 : dAve : 	(0.0201109836069 -0.0592450472539 -0.0163624617374) : omega : 	0.0654498469498 : d : 	(0.310486681125 -0.914664267771 -0.258819045103)
	I166 : dAve : 	(0.0122059009283 -0.0613632077737 -0.0163624617374) : omega : 	0.0654498469498 : d : 	(0.188442780494 -0.947365832386 -0.258819045103)
	I167 : dAve : 	(0.00409197190067 -0.0624314267954 -0.0163624617374) : omega : 	0.0654498469498 : d : 	(0.0631745716435 -0.963857704949 -0.258819045103)
	I168 : dAve : 	(-0.00409197190067 -0.0624314267954 -0.0163624617374) : omega : 	0.0654498469498 : d : 	(-0.0631745716435 -0.963857704949 -0.258819045103)
	I169 : dAve : 	(-0.0122059009283 -0.0613632077737 -0.0163624617374) : omega : 	0.0654498469498 : d : 	(-0.188442780494 -0.947365832386 -0.258819045103)
	I170 : dAve : 	(-0.0201109836069 -0.0592450472539 -0.0163624617374) : omega : 	0.0654498469498 : d : 	(-0.310486681125 -0.914664267771 -0.258819045103)
	I171 : dAve : 	(-0.0276719617802 -0.0561131875497 -0.0163624617374) : omega : 	0.0654498469498 : d : 	(-0.427218068558 -0.866312543941 -0.258819045103)
	I172 : dAve : 	(-0.0347594650153 -0.052021215649 -0.0163624617374) : omega : 	0.0654498469498 : d : 	(-0.536639636391 -0.803137972298 -0.258819045103)
	I173 : dAve : 	(-0.0412522241668 -0.0470391463256 -0.0163624617374) : omega : 	0.0654498469498 : d : 	(-0.636879151261 -0.726221487276 -0.258819045103)
	I174 : dAve : 	(-0.0470391463256 -0.0412522241668 -0.0163624617374) : omega : 	0.0654498469498 : d : 	(-0.726221487276 -0.636879151261 -0.258819045103)
	I175 : dAve : 	(-0.052021215649 -0.0347594650153 -0.0163624617374) : omega : 	0.0654498469498 : d : 	(-0.803137972298 -0.536639636391 -0.258819045103)
	I176 : dAve : 	(-0.0561131875497 -0.0276719617802 -0.0163624617374) : omega : 	0.0654498469498 : d : 	(-0.866312543941 -0.427218068558 -0.258819045103)
	I177 : dAve : 	(-0.0592450472539 -0.0201109836069 -0.0163624617374) : omega : 	0.0654498469498 : d : 	(-0.914664267771 -0.310486681125 -0.258819045103)
	I178 : dAve : 	(-0.0613632077737 -0.0122059009283 -0.0163624617374) : omega : 	0.0654498469498 : d : 	(-0.947365832386 -0.188442780494 -0.258819045103)
	I179 : dAve : 	(-0.0624314267954 -0.00409197190067 -0.0163624617374) : omega : 	0.0654498469498 : d : 	(-0.963857704949 -0.0631745716435 -0.258819045103)
	I180 : dAve : 	(-0.0624314267954 0.00409197190067 -0.0163624617374) : omega : 	0.0654498469498 : d : 	(-0.963857704949 0.0631745716435 -0.258819045103)
	I181 : dAve : 	(-0.0613632077737 0.0122059009283 -0.0163624617374) : omega : 	0.0654498469498 : d : 	(-0.947365832386 0.188442780494 -0.258819045103)
	I182 : dAve : 	(-0.0592450472539 0.0201109836069 -0.0163624617374) : omega : 	0.0654498469498 : d : 	(-0.914664267771 0.310486681125 -0.258819045103)
	I183 : dAve : 	(-0.0561131875497 0.0276719617802 -0.0163624617374) : omega : 	0.0654498469498 : d : 	(-0.866312543941 0.427218068558 -0.258819045103)
	I184 : dAve : 	(-0.052021215649 0.0347594650153 -0.0163624617374) : omega : 	0.0654498469498 : d : 	(-0.803137972298 0.536639636391 -0.258819045103)
	I185 : dAve : 	(-0.0470391463256 0.0412522241668 -0.0163624617374) : omega : 	0.0654498469498 : d : 	(-0.726221487276 0.636879151261 -0.258819045103)
	I186 : dAve : 	(-0.0412522241668 0.0470391463256 -0.0163624617374) : omega : 	0.0654498469498 : d : 	(-0.636879151261 0.726221487276 -0.258819045103)
	I187 : dAve : 	(-0.0347594650153 0.052021215649 -0.0163624617374) : omega : 	0.0654498469498 : d : 	(-0.536639636391 0.803137972298 -0.258819045103)
	I188 : dAve : 	(-0.0276719617802 0.0561131875497 -0.0163624617374) : omega : 	0.0654498469498 : d : 	(-0.427218068558 0.866312543941 -0.258819045103)
	I189 : dAve : 	(-0.0201109836069 0.0592450472539 -0.0163624617374) : omega : 	0.0654498469498 : d : 	(-0.310486681125 0.914664267771 -0.258819045103)
	I190 : dAve : 	(-0.0122059009283 0.0613632077737 -0.0163624617374) : omega : 	0.0654498469498 : d : 	(-0.188442780494 0.947365832386 -0.258819045103)
	I191 : dAve : 	(-0.00409197190067 0.0624314267954 -0.0163624617374) : omega : 	0.0654498469498 : d : 	(-0.0631745716435 0.963857704949 -0.258819045103)
	I192 : dAve : 	(0.00223973005487 0.034171677215 -0.0327249234749) : omega : 	0.0479126133149 : d : 	(0.0462469961895 0.70559281129 -0.707106781187)
	I193 : dAve : 	(0.00668086776241 0.0335869903436 -0.0327249234749) : omega : 	0.0479126133149 : d : 	(0.137949689641 0.693519922661 -0.707106781187)
	I194 : dAve : 	(0.0110076939702 0.0324276207555 -0.0327249234749) : omega : 	0.0479126133149 : d : 	(0.227292025657 0.669580715876 -0.707106781187)
	I195 : dAve : 	(0.0151461754823 0.0307134055855 -0.0327249234749) : omega : 	0.0479126133149 : d : 	(0.312745332096 0.634184797399 -0.707106781187)
	I196 : dAve : 	(0.0190255017326 0.0284736755306 -0.0327249234749) : omega : 	0.0479126133149 : d : 	(0.392847479194 0.58793780121 -0.707106781187)
	I197 : dAve : 	(0.0225792963734 0.025746752993 -0.0327249234749) : omega : 	0.0479126133149 : d : 	(0.466227897004 0.531631026234 -0.707106781187)
	I198 : dAve : 	(0.025746752993 0.0225792963734 -0.0327249234749) : omega : 	0.0479126133149 : d : 	(0.531631026234 0.466227897004 -0.707106781187)
	I199 : dAve : 	(0.0284736755306 0.0190255017326 -0.0327249234749) : omega : 	0.0479126133149 : d : 	(0.58793780121 0.392847479194 -0.707106781187)
	I200 : dAve : 	(0.0307134055855 0.0151461754823 -0.0327249234749) : omega : 	0.0479126133149 : d : 	(0.634184797399 0.312745332096 -0.707106781187)
	I201 : dAve : 	(0.0324276207555 0.0110076939702 -0.0327249234749) : omega : 	0.0479126133149 : d : 	(0.669580715876 0.227292025657 -0.707106781187)
	I202 : dAve : 	(0.0335869903436 0.00668086776241 -0.0327249234749) : omega : 	0.0479126133149 : d : 	(0.693519922661 0.137949689641 -0.707106781187)
	I203 : dAve : 	(0.034171677215 0.00223973005487 -0.0327249234749) : omega : 	0.0479126133149 : d : 	(0.70559281129 0.0462469961895 -0.707106781187)
	I204 : dAve : 	(0.034171677215 -0.00223973005487 -0.0327249234749) : omega : 	0.0479126133149 : d : 	(0.70559281129 -0.0462469961895 -0.707106781187)
	I205 : dAve : 	(0.0335869903436 -0.00668086776241 -0.0327249234749) : omega : 	0.0479126133149 : d : 	(0.693519922661 -0.137949689641 -0.707106781187)
	I206 : dAve : 	(0.0324276207555 -0.0110076939702 -0.0327249234749) : omega : 	0.0479126133149 : d : 	(0.669580715876 -0.227292025657 -0.707106781187)
	I207 : dAve : 	(0.0307134055855 -0.0151461754823 -0.0327249234749) : omega : 	0.0479126133149 : d : 	(0.634184797399 -0.312745332096 -0.707106781187)
	I208 : dAve : 	(0.0284736755306 -0.0190255017326 -0.0327249234749) : omega : 	0.0479126133149 : d : 	(0.58793780121 -0.392847479194 -0.707106781187)
	I209 : dAve : 	(0.025746752993 -0.0225792963734 -0.0327249234749) : omega : 	0.0479126133149 : d : 	(0.531631026234 -0.466227897004 -0.707106781187)
	I210 : dAve : 	(0.0225792963734 -0.025746752993 -0.0327249234749) : omega : 	0.0479126133149 : d : 	(0.466227897004 -0.531631026234 -0.707106781187)
	I211 : dAve : 	(0.0190255017326 -0.0284736755306 -0.0327249234749) : omega : 	0.0479126133149 : d : 	(0.392847479194 -0.58793780121 -0.707106781187)
	I212 : dAve : 	(0.0151461754823 -0.0307134055855 -0.0327249234749) : omega : 	0.0479126133149 : d : 	(0.312745332096 -0.634184797399 -0.707106781187)
	I213 : dAve : 	(0.0110076939702 -0.0324276207555 -0.0327249234749) : omega : 	0.0479126133149 : d : 	(0.227292025657 -0.669580715876 -0.707106781187)
	I214 : dAve : 	(0.00668086776241 -0.0335869903436 -0.0327249234749) : omega : 	0.0479126133149 : d : 	(0.137949689641 -0.693519922661 -0.707106781187)
	I215 : dAve : 	(0.00223973005487 -0.034171677215 -0.0327249234749) : omega : 	0.0479126133149 : d : 	(0.0462469961895 -0.70559281129 -0.707106781187)
	I216 : dAve : 	(-0.00223973005487 -0.034171677215 -0.0327249234749) : omega : 	0.0479126133149 : d : 	(-0.0462469961895 -0.70559281129 -0.707106781187)
	I217 : dAve : 	(-0.00668086776241 -0.0335869903436 -0.0327249234749) : omega : 	0.0479126133149 : d : 	(-0.137949689641 -0.693519922661 -0.707106781187)
	I218 : dAve : 	(-0.0110076939702 -0.0324276207555 -0.0327249234749) : omega : 	0.0479126133149 : d : 	(-0.227292025657 -0.669580715876 -0.707106781187)
	I219 : dAve : 	(-0.0151461754823 -0.0307134055855 -0.0327249234749) : omega : 	0.0479126133149 : d : 	(-0.312745332096 -0.634184797399 -0.707106781187)
	I220 : dAve : 	(-0.0190255017326 -0.0284736755306 -0.0327249234749) : omega : 	0.0479126133149 : d : 	(-0.392847479194 -0.58793780121 -0.707106781187)
	I221 : dAve : 	(-0.0225792963734 -0.025746752993 -0.0327249234749) : omega : 	0.0479126133149 : d : 	(-0.466227897004 -0.531631026234 -0.707106781187)
	I222 : dAve : 	(-0.025746752993 -0.0225792963734 -0.0327249234749) : omega : 	0.0479126133149 : d : 	(-0.531631026234 -0.466227897004 -0.707106781187)
	I223 : dAve : 	(-0.0284736755306 -0.0190255017326 -0.0327249234749) : omega : 	0.0479126133149 : d : 	(-0.58793780121 -0.392847479194 -0.707106781187)
	I224 : dAve : 	(-0.0307134055855 -0.0151461754823 -0.0327249234749) : omega : 	0.0479126133149 : d : 	(-0.634184797399 -0.312745332096 -0.707106781187)
	I225 : dAve : 	(-0.0324276207555 -0.0110076939702 -0.0327249234749) : omega : 	0.0479126133149 : d : 	(-0.669580715876 -0.227292025657 -0.707106781187)
	I226 : dAve : 	(-0.0335869903436 -0.00668086776241 -0.0327249234749) : omega : 	0.0479126133149 : d : 	(-0.693519922661 -0.137949689641 -0.707106781187)
	I227 : dAve : 	(-0.034171677215 -0.00223973005487 -0.0327249234749) : omega : 	0.0479126133149 : d : 	(-0.70559281129 -0.0462469961895 -0.707106781187)
	I228 : dAve : 	(-0.034171677215 0.00223973005487 -0.0327249234749) : omega : 	0.0479126133149 : d : 	(-0.70559281129 0.0462469961895 -0.707106781187)
	I229 : dAve : 	(-0.0335869903436 0.00668086776241 -0.0327249234749) : omega : 	0.0479126133149 : d : 	(-0.693519922661 0.137949689641 -0.707106781187)
	I230 : dAve : 	(-0.0324276207555 0.0110076939702 -0.0327249234749) : omega : 	0.0479126133149 : d : 	(-0.669580715876 0.227292025657 -0.707106781187)
	I231 : dAve : 	(-0.0307134055855 0.0151461754823 -0.0327249234749) : omega : 	0.0479126133149 : d : 	(-0.634184797399 0.312745332096 -0.707106781187)
	I232 : dAve : 	(-0.0284736755306 0.0190255017326 -0.0327249234749) : omega : 	0.0479126133149 : d : 	(-0.58793780121 0.392847479194 -0.707106781187)
	I233 : dAve : 	(-0.025746752993 0.0225792963734 -0.0327249234749) : omega : 	0.0479126133149 : d : 	(-0.531631026234 0.466227897004 -0.707106781187)
	I234 : dAve : 	(-0.0225792963734 0.025746752993 -0.0327249234749) : omega : 	0.0479126133149 : d : 	(-0.466227897004 0.531631026234 -0.707106781187)
	I235 : dAve : 	(-0.0190255017326 0.0284736755306 -0.0327249234749) : omega : 	0.0479126133149 : d : 	(-0.392847479194 0.58793780121 -0.707106781187)
	I236 : dAve : 	(-0.0151461754823 0.0307134055855 -0.0327249234749) : omega : 	0.0479126133149 : d : 	(-0.312745332096 0.634184797399 -0.707106781187)
	I237 : dAve : 	(-0.0110076939702 0.0324276207555 -0.0327249234749) : omega : 	0.0479126133149 : d : 	(-0.227292025657 0.669580715876 -0.707106781187)
	I238 : dAve : 	(-0.00668086776241 0.0335869903436 -0.0327249234749) : omega : 	0.0479126133149 : d : 	(-0.137949689641 0.693519922661 -0.707106781187)
	I239 : dAve : 	(-0.00223973005487 0.034171677215 -0.0327249234749) : omega : 	0.0479126133149 : d : 	(-0.0462469961895 0.70559281129 -0.707106781187)
	I240 : dAve : 	(0.000387488209079 0.00591192763451 -0.0163624617374) : omega : 	0.0175372336349 : d : 	(0.0169275754541 0.25826489366 -0.965925826289)
	I241 : dAve : 	(0.00115583459655 0.00581077291359 -0.0163624617374) : omega : 	0.0175372336349 : d : 	(0.050493090853 0.253845909725 -0.965925826289)
	I242 : dAve : 	(0.00190440433361 0.00561019425706 -0.0163624617374) : omega : 	0.0175372336349 : d : 	(0.083194655468 0.245083551895 -0.965925826289)
	I243 : dAve : 	(0.00262038918453 0.00531362362136 -0.0163624617374) : omega : 	0.0175372336349 : d : 	(0.114472736462 0.232127746542 -0.965925826289)
	I244 : dAve : 	(0.00329153844998 0.00492613541228 -0.0163624617374) : omega : 	0.0175372336349 : d : 	(0.143792157198 0.215200171088 -0.965925826289)
	I245 : dAve : 	(0.00390636857998 0.00445435966052 -0.0163624617374) : omega : 	0.0175372336349 : d : 	(0.170651254257 0.194590461042 -0.965925826289)
	I246 : dAve : 	(0.00445435966052 0.00390636857998 -0.0163624617374) : omega : 	0.0175372336349 : d : 	(0.194590461042 0.170651254257 -0.965925826289)
	I247 : dAve : 	(0.00492613541228 0.00329153844998 -0.0163624617374) : omega : 	0.0175372336349 : d : 	(0.215200171088 0.143792157198 -0.965925826289)
	I248 : dAve : 	(0.00531362362136 0.00262038918453 -0.0163624617374) : omega : 	0.0175372336349 : d : 	(0.232127746542 0.114472736462 -0.965925826289)
	I249 : dAve : 	(0.00561019425706 0.00190440433361 -0.0163624617374) : omega : 	0.0175372336349 : d : 	(0.245083551895 0.083194655468 -0.965925826289)
	I250 : dAve : 	(0.00581077291359 0.00115583459655 -0.0163624617374) : omega : 	0.0175372336349 : d : 	(0.253845909725 0.050493090853 -0.965925826289)
	I251 : dAve : 	(0.00591192763451 0.000387488209079 -0.0163624617374) : omega : 	0.0175372336349 : d : 	(0.25826489366 0.0169275754541 -0.965925826289)
	I252 : dAve : 	(0.00591192763451 -0.000387488209079 -0.0163624617374) : omega : 	0.0175372336349 : d : 	(0.25826489366 -0.0169275754541 -0.965925826289)
	I253 : dAve : 	(0.00581077291359 -0.00115583459655 -0.0163624617374) : omega : 	0.0175372336349 : d : 	(0.253845909725 -0.050493090853 -0.965925826289)
	I254 : dAve : 	(0.00561019425706 -0.00190440433361 -0.0163624617374) : omega : 	0.0175372336349 : d : 	(0.245083551895 -0.083194655468 -0.965925826289)
	I255 : dAve : 	(0.00531362362136 -0.00262038918453 -0.0163624617374) : omega : 	0.0175372336349 : d : 	(0.232127746542 -0.114472736462 -0.965925826289)
	I256 : dAve : 	(0.00492613541228 -0.00329153844998 -0.0163624617374) : omega : 	0.0175372336349 : d : 	(0.215200171088 -0.143792157198 -0.965925826289)
	I257 : dAve : 	(0.00445435966052 -0.00390636857998 -0.0163624617374) : omega : 	0.0175372336349 : d : 	(0.194590461042 -0.170651254257 -0.965925826289)
	I258 : dAve : 	(0.00390636857998 -0.00445435966052 -0.0163624617374) : omega : 	0.0175372336349 : d : 	(0.170651254257 -0.194590461042 -0.965925826289)
	I259 : dAve : 	(0.00329153844998 -0.00492613541228 -0.0163624617374) : omega : 	0.0175372336349 : d : 	(0.143792157198 -0.215200171088 -0.965925826289)
	I260 : dAve : 	(0.00262038918453 -0.00531362362136 -0.0163624617374) : omega : 	0.0175372336349 : d : 	(0.114472736462 -0.232127746542 -0.965925826289)
	I261 : dAve : 	(0.00190440433361 -0.00561019425706 -0.0163624617374) : omega : 	0.0175372336349 : d : 	(0.083194655468 -0.245083551895 -0.965925826289)
	I262 : dAve : 	(0.00115583459655 -0.00581077291359 -0.0163624617374) : omega : 	0.0175372336349 : d : 	(0.050493090853 -0.253845909725 -0.965925826289)
	I263 : dAve : 	(0.000387488209079 -0.00591192763451 -0.0163624617374) : omega : 	0.0175372336349 : d : 	(0.0169275754541 -0.25826489366 -0.965925826289)
	I264 : dAve : 	(-0.000387488209079 -0.00591192763451 -0.0163624617374) : omega : 	0.0175372336349 : d : 	(-0.0169275754541 -0.25826489366 -0.965925826289)
	I265 : dAve : 	(-0.00115583459655 -0.00581077291359 -0.0163624617374) : omega : 	0.0175372336349 : d : 	(-0.050493090853 -0.253845909725 -0.965925826289)
	I266 : dAve : 	(-0.00190440433361 -0.00561019425706 -0.0163624617374) : omega : 	0.0175372336349 : d : 	(-0.083194655468 -0.245083551895 -0.965925826289)
	I267 : dAve : 	(-0.00262038918453 -0.00531362362136 -0.0163624617374) : omega : 	0.0175372336349 : d : 	(-0.114472736462 -0.232127746542 -0.965925826289)
	I268 : dAve : 	(-0.00329153844998 -0.00492613541228 -0.0163624617374) : omega : 	0.0175372336349 : d : 	(-0.143792157198 -0.215200171088 -0.965925826289)
	I269 : dAve : 	(-0.00390636857998 -0.00445435966052 -0.0163624617374) : omega : 	0.0175372336349 : d : 	(-0.170651254257 -0.194590461042 -0.965925826289)
	I270 : dAve : 	(-0.00445435966052 -0.00390636857998 -0.0163624617374) : omega : 	0.0175372336349 : d : 	(-0.194590461042 -0.170651254257 -0.965925826289)
	I271 : dAve : 	(-0.00492613541228 -0.00329153844998 -0.0163624617374) : omega : 	0.0175372336349 : d : 	(-0.215200171088 -0.143792157198 -0.965925826289)
	I272 : dAve : 	(-0.00531362362136 -0.00262038918453 -0.0163624617374) : omega : 	0.0175372336349 : d : 	(-0.232127746542 -0.114472736462 -0.965925826289)
	I273 : dAve : 	(-0.00561019425706 -0.00190440433361 -0.0163624617374) : omega : 	0.0175372336349 : d : 	(-0.245083551895 -0.083194655468 -0.965925826289)
	I274 : dAve : 	(-0.00581077291359 -0.00115583459655 -0.0163624617374) : omega : 	0.0175372336349 : d : 	(-0.253845909725 -0.050493090853 -0.965925826289)
	I275 : dAve : 	(-0.00591192763451 -0.000387488209079 -0.0163624617374) : omega : 	0.0175372336349 : d : 	(-0.25826489366 -0.0169275754541 -0.965925826289)
	I276 : dAve : 	(-0.00591192763451 0.000387488209079 -0.0163624617374) : omega : 	0.0175372336349 : d : 	(-0.25826489366 0.0169275754541 -0.965925826289)
	I277 : dAve : 	(-0.00581077291359 0.00115583459655 -0.0163624617374) : omega : 	0.0175372336349 : d : 	(-0.253845909725 0.050493090853 -0.965925826289)
	I278 : dAve : 	(-0.00561019425706 0.00190440433361 -0.0163624617374) : omega : 	0.0175372336349 : d : 	(-0.245083551895 0.083194655468 -0.965925826289)
	I279 : dAve : 	(-0.00531362362136 0.00262038918453 -0.0163624617374) : omega : 	0.0175372336349 : d : 	(-0.232127746542 0.114472736462 -0.965925826289)
	I280 : dAve : 	(-0.00492613541228 0.00329153844998 -0.0163624617374) : omega : 	0.0175372336349 : d : 	(-0.215200171088 0.143792157198 -0.965925826289)
	I281 : dAve : 	(-0.00445435966052 0.00390636857998 -0.0163624617374) : omega : 	0.0175372336349 : d : 	(-0.194590461042 0.170651254257 -0.965925826289)
	I282 : dAve : 	(-0.00390636857998 0.00445435966052 -0.0163624617374) : omega : 	0.0175372336349 : d : 	(-0.170651254257 0.194590461042 -0.965925826289)
	I283 : dAve : 	(-0.00329153844998 0.00492613541228 -0.0163624617374) : omega : 	0.0175372336349 : d : 	(-0.143792157198 0.215200171088 -0.965925826289)
	I284 : dAve : 	(-0.00262038918453 0.00531362362136 -0.0163624617374) : omega : 	0.0175372336349 : d : 	(-0.114472736462 0.232127746542 -0.965925826289)
	I285 : dAve : 	(-0.00190440433361 0.00561019425706 -0.0163624617374) : omega : 	0.0175372336349 : d : 	(-0.083194655468 0.245083551895 -0.965925826289)
	I286 : dAve : 	(-0.00115583459655 0.00581077291359 -0.0163624617374) : omega : 	0.0175372336349 : d : 	(-0.050493090853 0.253845909725 -0.965925826289)
	I287 : dAve : 	(-0.000387488209079 0.00591192763451 -0.0163624617374) : omega : 	0.0175372336349 : d : 	(-0.0169275754541 0.25826489366 -0.965925826289)
Total omega : 12.5663706144

Courant Number mean: 0 max: 0

Starting time loop

Sampled set:
    data -> csv

Sampled set:
    data -> csv

Sampled surface:
    yNormal -> ensight
        sampledCuttingPlane: yNormal : plane:(0 1 0) (0 0 0) offsets:(0)

Sampled surface:
    zNormal -> ensight
        sampledCuttingPlane: zNormal : plane:(0 0 1) (0 0 0) offsets:(0)

Sampled surface:
    patchAll -> ensight
        sampledPatch: patchAll : patches:(".*WW.*")

deltaT = 1
Time = 1

PIMPLE: iteration 1
Radiation solver iter: 0
DILUPBiCGStab:  Solving for ILambda_0_0, Initial residual = 1, Final residual = 3.3504122865e-73, No Iterations 3
DILUPBiCGStab:  Solving for ILambda_1_0, Initial residual = 1, Final residual = 2.8793777874e-73, No Iterations 3
DILUPBiCGStab:  Solving for ILambda_2_0, Initial residual = 1, Final residual = 7.2440770428e-73, No Iterations 3
DILUPBiCGStab:  Solving for ILambda_3_0, Initial residual = 1, Final residual = 6.10488300343e-73, No Iterations 3
DILUPBiCGStab:  Solving for ILambda_4_0, Initial residual = 1, Final residual = 6.82296474084e-73, No Iterations 3
DILUPBiCGStab:  Solving for ILambda_5_0, Initial residual = 1, Final residual = 1.60066068648e-71, No Iterations 3
DILUPBiCGStab:  Solving for ILambda_6_0, Initial residual = 1, Final residual = 1.14428663787e-72, No Iterations 3
DILUPBiCGStab:  Solving for ILambda_7_0, Initial residual = 1, Final residual = 6.89697686477e-73, No Iterations 3
DILUPBiCGStab:  Solving for ILambda_8_0, Initial residual = 1, Final residual = 1.09976228674e-72, No Iterations 3
DILUPBiCGStab:  Solving for ILambda_9_0, Initial residual = 1, Final residual = 1.74737959961e-73, No Iterations 3
DILUPBiCGStab:  Solving for ILambda_10_0, Initial residual = 1, Final residual = 2.52017984495e-73, No Iterations 3
DILUPBiCGStab:  Solving for ILambda_11_0, Initial residual = 1, Final residual = 1.30422478607e-73, No Iterations 3
DILUPBiCGStab:  Solving for ILambda_12_0, Initial residual = 1, Final residual = 1.78922784799e-61, No Iterations 65
DILUPBiCGStab:  Solving for ILambda_13_0, Initial residual = 1, Final residual = 6.77803919242e-61, No Iterations 106
DILUPBiCGStab:  Solving for ILambda_14_0, Initial residual = 1, Final residual = 5.78899164037e-61, No Iterations 136
DILUPBiCGStab:  Solving for ILambda_15_0, Initial residual = 1, Final residual = 3.80087441965e-61, No Iterations 150
DILUPBiCGStab:  Solving for ILambda_16_0, Initial residual = 1, Final residual = 4.05960498858e-61, No Iterations 159
DILUPBiCGStab:  Solving for ILambda_17_0, Initial residual = 1, Final residual = 7.1653153529e-61, No Iterations 163
DILUPBiCGStab:  Solving for ILambda_18_0, Initial residual = 1, Final residual = 8.38398276432e-61, No Iterations 162
DILUPBiCGStab:  Solving for ILambda_19_0, Initial residual = 1, Final residual = 6.77689392958e-61, No Iterations 157
DILUPBiCGStab:  Solving for ILambda_20_0, Initial residual = 1, Final residual = 7.14189564749e-61, No Iterations 149
DILUPBiCGStab:  Solving for ILambda_21_0, Initial residual = 1, Final residual = 2.71889688874e-61, No Iterations 137
DILUPBiCGStab:  Solving for ILambda_22_0, Initial residual = 1, Final residual = 4.24419666481e-61, No Iterations 105
DILUPBiCGStab:  Solving for ILambda_23_0, Initial residual = 1, Final residual = 7.69255254198e-61, No Iterations 65
DILUPBiCGStab:  Solving for ILambda_24_0, Initial residual = 1, Final residual = 3.87279487253e-61, No Iterations 41
DILUPBiCGStab:  Solving for ILambda_25_0, Initial residual = 1, Final residual = 1.30768983393e-61, No Iterations 43
DILUPBiCGStab:  Solving for ILambda_26_0, Initial residual = 1, Final residual = 2.65004118533e-61, No Iterations 44
DILUPBiCGStab:  Solving for ILambda_27_0, Initial residual = 1, Final residual = 1.26325256753e-61, No Iterations 44
DILUPBiCGStab:  Solving for ILambda_28_0, Initial residual = 1, Final residual = 2.97025557585e-61, No Iterations 43
DILUPBiCGStab:  Solving for ILambda_29_0, Initial residual = 1, Final residual = 4.06601835677e-61, No Iterations 44
DILUPBiCGStab:  Solving for ILambda_30_0, Initial residual = 1, Final residual = 1.70791148276e-61, No Iterations 44
DILUPBiCGStab:  Solving for ILambda_31_0, Initial residual = 1, Final residual = 1.70251433735e-61, No Iterations 44
DILUPBiCGStab:  Solving for ILambda_32_0, Initial residual = 1, Final residual = 2.71342226373e-61, No Iterations 44
DILUPBiCGStab:  Solving for ILambda_33_0, Initial residual = 1, Final residual = 1.2567398243e-61, No Iterations 44
DILUPBiCGStab:  Solving for ILambda_34_0, Initial residual = 1, Final residual = 6.58359135621e-61, No Iterations 43
DILUPBiCGStab:  Solving for ILambda_35_0, Initial residual = 1, Final residual = 3.17682418197e-61, No Iterations 41
DILUPBiCGStab:  Solving for ILambda_36_0, Initial residual = 1, Final residual = 2.68757130544e-61, No Iterations 66
DILUPBiCGStab:  Solving for ILambda_37_0, Initial residual = 1, Final residual = 5.80529496555e-61, No Iterations 107
DILUPBiCGStab:  Solving for ILambda_38_0, Initial residual = 1, Final residual = 4.49354952311e-61, No Iterations 137
DILUPBiCGStab:  Solving for ILambda_39_0, Initial residual = 1, Final residual = 6.83444203262e-61, No Iterations 149
DILUPBiCGStab:  Solving for ILambda_40_0, Initial residual = 1, Final residual = 2.9479625879e-61, No Iterations 156
DILUPBiCGStab:  Solving for ILambda_41_0, Initial residual = 1, Final residual = 9.91395884097e-61, No Iterations 165
DILUPBiCGStab:  Solving for ILambda_42_0, Initial residual = 1, Final residual = 3.3748138856e-61, No Iterations 167
DILUPBiCGStab:  Solving for ILambda_43_0, Initial residual = 1, Final residual = 9.76331000956e-61, No Iterations 156
DILUPBiCGStab:  Solving for ILambda_44_0, Initial residual = 1, Final residual = 6.53491010824e-62, No Iterations 151
DILUPBiCGStab:  Solving for ILambda_45_0, Initial residual = 1, Final residual = 6.16011679405e-61, No Iterations 135
DILUPBiCGStab:  Solving for ILambda_46_0, Initial residual = 1, Final residual = 9.08646903318e-61, No Iterations 107
DILUPBiCGStab:  Solving for ILambda_47_0, Initial residual = 1, Final residual = 9.56199040345e-61, No Iterations 64
DILUPBiCGStab:  Solving for ILambda_48_0, Initial residual = 1, Final residual = 2.6591924559e-72, No Iterations 3
DILUPBiCGStab:  Solving for ILambda_49_0, Initial residual = 1, Final residual = 8.99489610552e-71, No Iterations 3
DILUPBiCGStab:  Solving for ILambda_50_0, Initial residual = 1, Final residual = 1.33984596092e-71, No Iterations 3
DILUPBiCGStab:  Solving for ILambda_51_0, Initial residual = 1, Final residual = 5.34430787737e-72, No Iterations 3
DILUPBiCGStab:  Solving for ILambda_52_0, Initial residual = 1, Final residual = 8.22573593444e-71, No Iterations 3
DILUPBiCGStab:  Solving for ILambda_53_0, Initial residual = 1, Final residual = 1.49857916229e-71, No Iterations 3
DILUPBiCGStab:  Solving for ILambda_54_0, Initial residual = 1, Final residual = 1.1416597259e-71, No Iterations 3
DILUPBiCGStab:  Solving for ILambda_55_0, Initial residual = 1, Final residual = 2.48928618275e-71, No Iterations 3
DILUPBiCGStab:  Solving for ILambda_56_0, Initial residual = 1, Final residual = 1.19072562783e-71, No Iterations 3
DILUPBiCGStab:  Solving for ILambda_57_0, Initial residual = 1, Final residual = 9.90371283581e-72, No Iterations 3
DILUPBiCGStab:  Solving for ILambda_58_0, Initial residual = 1, Final residual = 2.04413975983e-71, No Iterations 3
DILUPBiCGStab:  Solving for ILambda_59_0, Initial residual = 1, Final residual = 6.53653840088e-72, No Iterations 3
DILUPBiCGStab:  Solving for ILambda_60_0, Initial residual = 1, Final residual = 2.18479748219e-61, No Iterations 67
DILUPBiCGStab:  Solving for ILambda_61_0, Initial residual = 1, Final residual = 2.91063632298e-62, No Iterations 110
DILUPBiCGStab:  Solving for ILambda_62_0, Initial residual = 1, Final residual = 5.68683142644e-61, No Iterations 137
DILUPBiCGStab:  Solving for ILambda_63_0, Initial residual = 1, Final residual = 5.02452224754e-61, No Iterations 158
DILUPBiCGStab:  Solving for ILambda_64_0, Initial residual = 1, Final residual = 3.95025051126e-61, No Iterations 170
DILUPBiCGStab:  Solving for ILambda_65_0, Initial residual = 1, Final residual = 8.80641497175e-61, No Iterations 177
DILUPBiCGStab:  Solving for ILambda_66_0, Initial residual = 1, Final residual = 2.69635152175e-62, No Iterations 176
DILUPBiCGStab:  Solving for ILambda_67_0, Initial residual = 1, Final residual = 2.30603729779e-61, No Iterations 170
DILUPBiCGStab:  Solving for ILambda_68_0, Initial residual = 1, Final residual = 4.01467412082e-61, No Iterations 158
DILUPBiCGStab:  Solving for ILambda_69_0, Initial residual = 1, Final residual = 7.13780598075e-61, No Iterations 135
DILUPBiCGStab:  Solving for ILambda_70_0, Initial residual = 1, Final residual = 4.27299071281e-61, No Iterations 103
DILUPBiCGStab:  Solving for ILambda_71_0, Initial residual = 1, Final residual = 5.17154645673e-61, No Iterations 71
DILUPBiCGStab:  Solving for ILambda_72_0, Initial residual = 1, Final residual = 1.3056872379e-61, No Iterations 51
DILUPBiCGStab:  Solving for ILambda_73_0, Initial residual = 1, Final residual = 8.36190140225e-61, No Iterations 56
DILUPBiCGStab:  Solving for ILambda_74_0, Initial residual = 1, Final residual = 2.60687462381e-61, No Iterations 58
DILUPBiCGStab:  Solving for ILambda_75_0, Initial residual = 1, Final residual = 3.99531920613e-61, No Iterations 58
DILUPBiCGStab:  Solving for ILambda_76_0, Initial residual = 1, Final residual = 6.63011217512e-61, No Iterations 60
DILUPBiCGStab:  Solving for ILambda_77_0, Initial residual = 1, Final residual = 1.22208063667e-61, No Iterations 60
DILUPBiCGStab:  Solving for ILambda_78_0, Initial residual = 1, Final residual = 5.9945368948e-61, No Iterations 60
DILUPBiCGStab:  Solving for ILambda_79_0, Initial residual = 1, Final residual = 3.59432589173e-61, No Iterations 60
DILUPBiCGStab:  Solving for ILambda_80_0, Initial residual = 1, Final residual = 1.80741404487e-61, No Iterations 58
DILUPBiCGStab:  Solving for ILambda_81_0, Initial residual = 1, Final residual = 2.71122820602e-61, No Iterations 58
DILUPBiCGStab:  Solving for ILambda_82_0, Initial residual = 1, Final residual = 1.58971530253e-61, No Iterations 57
DILUPBiCGStab:  Solving for ILambda_83_0, Initial residual = 1, Final residual = 7.72218920993e-62, No Iterations 52
DILUPBiCGStab:  Solving for ILambda_84_0, Initial residual = 1, Final residual = 2.86581046817e-61, No Iterations 71
DILUPBiCGStab:  Solving for ILambda_85_0, Initial residual = 1, Final residual = 7.65106678461e-61, No Iterations 104
DILUPBiCGStab:  Solving for ILambda_86_0, Initial residual = 1, Final residual = 6.94513063083e-61, No Iterations 131
DILUPBiCGStab:  Solving for ILambda_87_0, Initial residual = 1, Final residual = 4.86516049808e-61, No Iterations 160
DILUPBiCGStab:  Solving for ILambda_88_0, Initial residual = 1, Final residual = 6.32774341756e-61, No Iterations 172
DILUPBiCGStab:  Solving for ILambda_89_0, Initial residual = 1, Final residual = 9.72214340483e-61, No Iterations 178
DILUPBiCGStab:  Solving for ILambda_90_0, Initial residual = 1, Final residual = 8.53291121979e-61, No Iterations 177
DILUPBiCGStab:  Solving for ILambda_91_0, Initial residual = 1, Final residual = 6.31141745022e-61, No Iterations 168
DILUPBiCGStab:  Solving for ILambda_92_0, Initial residual = 1, Final residual = 5.55481922306e-61, No Iterations 159
DILUPBiCGStab:  Solving for ILambda_93_0, Initial residual = 1, Final residual = 3.74517477468e-61, No Iterations 138
DILUPBiCGStab:  Solving for ILambda_94_0, Initial residual = 1, Final residual = 7.20496805461e-62, No Iterations 110
DILUPBiCGStab:  Solving for ILambda_95_0, Initial residual = 1, Final residual = 7.74191243471e-61, No Iterations 66
DILUPBiCGStab:  Solving for ILambda_96_0, Initial residual = 1, Final residual = 2.93399619072e-71, No Iterations 3
DILUPBiCGStab:  Solving for ILambda_97_0, Initial residual = 1, Final residual = 2.85695529256e-71, No Iterations 3
DILUPBiCGStab:  Solving for ILambda_98_0, Initial residual = 1, Final residual = 2.20490045915e-70, No Iterations 3
DILUPBiCGStab:  Solving for ILambda_99_0, Initial residual = 1, Final residual = 1.6291384729e-70, No Iterations 3
DILUPBiCGStab:  Solving for ILambda_100_0, Initial residual = 1, Final residual = 3.71296838662e-70, No Iterations 3
DILUPBiCGStab:  Solving for ILambda_101_0, Initial residual = 1, Final residual = 4.79941372441e-71, No Iterations 3
DILUPBiCGStab:  Solving for ILambda_102_0, Initial residual = 1, Final residual = 5.78899385107e-71, No Iterations 3
DILUPBiCGStab:  Solving for ILambda_103_0, Initial residual = 1, Final residual = 3.73900440377e-71, No Iterations 3
DILUPBiCGStab:  Solving for ILambda_104_0, Initial residual = 1, Final residual = 1.47843962237e-70, No Iterations 3
DILUPBiCGStab:  Solving for ILambda_105_0, Initial residual = 1, Final residual = 3.08886601257e-71, No Iterations 3
DILUPBiCGStab:  Solving for ILambda_106_0, Initial residual = 1, Final residual = 2.17442914076e-70, No Iterations 3
DILUPBiCGStab:  Solving for ILambda_107_0, Initial residual = 1, Final residual = 4.23765824599e-71, No Iterations 3
DILUPBiCGStab:  Solving for ILambda_108_0, Initial residual = 1, Final residual = 2.25314073387e-61, No Iterations 71
DILUPBiCGStab:  Solving for ILambda_109_0, Initial residual = 1, Final residual = 8.33447755253e-61, No Iterations 110
DILUPBiCGStab:  Solving for ILambda_110_0, Initial residual = 1, Final residual = 3.70531917111e-61, No Iterations 136
DILUPBiCGStab:  Solving for ILambda_111_0, Initial residual = 1, Final residual = 8.15620430222e-61, No Iterations 159
DILUPBiCGStab:  Solving for ILambda_112_0, Initial residual = 1, Final residual = 9.55032680272e-61, No Iterations 170
DILUPBiCGStab:  Solving for ILambda_113_0, Initial residual = 1, Final residual = 2.01995432354e-61, No Iterations 183
DILUPBiCGStab:  Solving for ILambda_114_0, Initial residual = 1, Final residual = 2.27492702568e-61, No Iterations 183
DILUPBiCGStab:  Solving for ILambda_115_0, Initial residual = 1, Final residual = 3.1955757172e-61, No Iterations 169
DILUPBiCGStab:  Solving for ILambda_116_0, Initial residual = 1, Final residual = 8.08468375736e-61, No Iterations 157
DILUPBiCGStab:  Solving for ILambda_117_0, Initial residual = 1, Final residual = 9.97798641689e-61, No Iterations 133
DILUPBiCGStab:  Solving for ILambda_118_0, Initial residual = 1, Final residual = 3.33863428107e-61, No Iterations 111
DILUPBiCGStab:  Solving for ILambda_119_0, Initial residual = 1, Final residual = 9.842699988e-61, No Iterations 79
DILUPBiCGStab:  Solving for ILambda_120_0, Initial residual = 1, Final residual = 3.05503222415e-61, No Iterations 63
DILUPBiCGStab:  Solving for ILambda_121_0, Initial residual = 1, Final residual = 1.19195849742e-61, No Iterations 68
DILUPBiCGStab:  Solving for ILambda_122_0, Initial residual = 1, Final residual = 8.51877178645e-62, No Iterations 72
DILUPBiCGStab:  Solving for ILambda_123_0, Initial residual = 1, Final residual = 1.98645554706e-61, No Iterations 76
DILUPBiCGStab:  Solving for ILambda_124_0, Initial residual = 1, Final residual = 3.04188252962e-61, No Iterations 72
DILUPBiCGStab:  Solving for ILambda_125_0, Initial residual = 1, Final residual = 4.99359781775e-61, No Iterations 77
DILUPBiCGStab:  Solving for ILambda_126_0, Initial residual = 1, Final residual = 7.56993238035e-62, No Iterations 74
DILUPBiCGStab:  Solving for ILambda_127_0, Initial residual = 1, Final residual = 5.12445945129e-61, No Iterations 74
DILUPBiCGStab:  Solving for ILambda_128_0, Initial residual = 1, Final residual = 6.75422172344e-61, No Iterations 74
DILUPBiCGStab:  Solving for ILambda_129_0, Initial residual = 1, Final residual = 7.75254490282e-61, No Iterations 72
DILUPBiCGStab:  Solving for ILambda_130_0, Initial residual = 1, Final residual = 6.70684188487e-62, No Iterations 68
DILUPBiCGStab:  Solving for ILambda_131_0, Initial residual = 1, Final residual = 1.3919181302e-61, No Iterations 63
DILUPBiCGStab:  Solving for ILambda_132_0, Initial residual = 1, Final residual = 2.61297178981e-61, No Iterations 80
DILUPBiCGStab:  Solving for ILambda_133_0, Initial residual = 1, Final residual = 6.88232907608e-61, No Iterations 112
DILUPBiCGStab:  Solving for ILambda_134_0, Initial residual = 1, Final residual = 9.38380598374e-61, No Iterations 134
DILUPBiCGStab:  Solving for ILambda_135_0, Initial residual = 1, Final residual = 3.7460765076e-61, No Iterations 155
DILUPBiCGStab:  Solving for ILambda_136_0, Initial residual = 1, Final residual = 3.56420726158e-61, No Iterations 169
DILUPBiCGStab:  Solving for ILambda_137_0, Initial residual = 1, Final residual = 3.92233485545e-61, No Iterations 181
DILUPBiCGStab:  Solving for ILambda_138_0, Initial residual = 1, Final residual = 1.11128028443e-61, No Iterations 184
DILUPBiCGStab:  Solving for ILambda_139_0, Initial residual = 1, Final residual = 7.86328788862e-61, No Iterations 168
DILUPBiCGStab:  Solving for ILambda_140_0, Initial residual = 1, Final residual = 8.03518722166e-61, No Iterations 159
DILUPBiCGStab:  Solving for ILambda_141_0, Initial residual = 1, Final residual = 6.77713734643e-61, No Iterations 137
DILUPBiCGStab:  Solving for ILambda_142_0, Initial residual = 1, Final residual = 6.52660332075e-61, No Iterations 112
DILUPBiCGStab:  Solving for ILambda_143_0, Initial residual = 1, Final residual = 6.52214861343e-61, No Iterations 70
DILUPBiCGStab:  Solving for ILambda_144_0, Initial residual = 1, Final residual = 3.89005638299e-61, No Iterations 62
DILUPBiCGStab:  Solving for ILambda_145_0, Initial residual = 1, Final residual = 2.84550592454e-61, No Iterations 62
DILUPBiCGStab:  Solving for ILambda_146_0, Initial residual = 1, Final residual = 2.72325297112e-62, No Iterations 64
DILUPBiCGStab:  Solving for ILambda_147_0, Initial residual = 1, Final residual = 7.32787576614e-62, No Iterations 67
DILUPBiCGStab:  Solving for ILambda_148_0, Initial residual = 1, Final residual = 8.42487243252e-62, No Iterations 65
DILUPBiCGStab:  Solving for ILambda_149_0, Initial residual = 1, Final residual = 2.65712435291e-61, No Iterations 67
DILUPBiCGStab:  Solving for ILambda_150_0, Initial residual = 1, Final residual = 7.86849945605e-62, No Iterations 67
DILUPBiCGStab:  Solving for ILambda_151_0, Initial residual = 1, Final residual = 1.63295909459e-61, No Iterations 66
DILUPBiCGStab:  Solving for ILambda_152_0, Initial residual = 1, Final residual = 9.91571040258e-61, No Iterations 67
DILUPBiCGStab:  Solving for ILambda_153_0, Initial residual = 1, Final residual = 9.96097379411e-61, No Iterations 65
DILUPBiCGStab:  Solving for ILambda_154_0, Initial residual = 1, Final residual = 9.75382510775e-62, No Iterations 62
DILUPBiCGStab:  Solving for ILambda_155_0, Initial residual = 1, Final residual = 3.86910280322e-61, No Iterations 62
DILUPBiCGStab:  Solving for ILambda_156_0, Initial residual = 1, Final residual = 6.04855929494e-61, No Iterations 77
DILUPBiCGStab:  Solving for ILambda_157_0, Initial residual = 1, Final residual = 1.76053091023e-61, No Iterations 111
DILUPBiCGStab:  Solving for ILambda_158_0, Initial residual = 1, Final residual = 8.33922962146e-62, No Iterations 133
DILUPBiCGStab:  Solving for ILambda_159_0, Initial residual = 1, Final residual = 6.39196617385e-61, No Iterations 153
DILUPBiCGStab:  Solving for ILambda_160_0, Initial residual = 1, Final residual = 5.41339828366e-61, No Iterations 171
DILUPBiCGStab:  Solving for ILambda_161_0, Initial residual = 1, Final residual = 6.04076958384e-61, No Iterations 179
DILUPBiCGStab:  Solving for ILambda_162_0, Initial residual = 1, Final residual = 8.26041091078e-61, No Iterations 182
DILUPBiCGStab:  Solving for ILambda_163_0, Initial residual = 1, Final residual = 8.00059645474e-61, No Iterations 172
DILUPBiCGStab:  Solving for ILambda_164_0, Initial residual = 1, Final residual = 9.24517549289e-61, No Iterations 156
DILUPBiCGStab:  Solving for ILambda_165_0, Initial residual = 1, Final residual = 4.69727006669e-61, No Iterations 137
DILUPBiCGStab:  Solving for ILambda_166_0, Initial residual = 1, Final residual = 9.29325131608e-62, No Iterations 112
DILUPBiCGStab:  Solving for ILambda_167_0, Initial residual = 1, Final residual = 2.551573936e-61, No Iterations 71
DILUPBiCGStab:  Solving for ILambda_168_0, Initial residual = 1, Final residual = 8.33121418366e-71, No Iterations 3
DILUPBiCGStab:  Solving for ILambda_169_0, Initial residual = 1, Final residual = 1.2209938076e-71, No Iterations 3
DILUPBiCGStab:  Solving for ILambda_170_0, Initial residual = 1, Final residual = 4.21691925767e-71, No Iterations 3
DILUPBiCGStab:  Solving for ILambda_171_0, Initial residual = 1, Final residual = 9.50852309762e-71, No Iterations 3
DILUPBiCGStab:  Solving for ILambda_172_0, Initial residual = 1, Final residual = 3.10092405782e-70, No Iterations 3
DILUPBiCGStab:  Solving for ILambda_173_0, Initial residual = 1, Final residual = 1.78592000249e-70, No Iterations 3
DILUPBiCGStab:  Solving for ILambda_174_0, Initial residual = 1, Final residual = 1.90826769024e-71, No Iterations 3
DILUPBiCGStab:  Solving for ILambda_175_0, Initial residual = 1, Final residual = 5.56190755614e-70, No Iterations 3
DILUPBiCGStab:  Solving for ILambda_176_0, Initial residual = 1, Final residual = 3.66237298082e-71, No Iterations 3
DILUPBiCGStab:  Solving for ILambda_177_0, Initial residual = 1, Final residual = 5.58381212925e-71, No Iterations 3
DILUPBiCGStab:  Solving for ILambda_178_0, Initial residual = 1, Final residual = 4.35752601218e-70, No Iterations 3
DILUPBiCGStab:  Solving for ILambda_179_0, Initial residual = 1, Final residual = 3.09553948624e-71, No Iterations 3
DILUPBiCGStab:  Solving for ILambda_180_0, Initial residual = 1, Final residual = 9.13777748503e-61, No Iterations 71
DILUPBiCGStab:  Solving for ILambda_181_0, Initial residual = 1, Final residual = 4.01072423462e-61, No Iterations 111
DILUPBiCGStab:  Solving for ILambda_182_0, Initial residual = 1, Final residual = 4.92795463014e-61, No Iterations 137
DILUPBiCGStab:  Solving for ILambda_183_0, Initial residual = 1, Final residual = 8.49232630105e-61, No Iterations 157
DILUPBiCGStab:  Solving for ILambda_184_0, Initial residual = 1, Final residual = 3.95500544964e-61, No Iterations 172
DILUPBiCGStab:  Solving for ILambda_185_0, Initial residual = 1, Final residual = 6.08993385321e-61, No Iterations 181
DILUPBiCGStab:  Solving for ILambda_186_0, Initial residual = 1, Final residual = 6.56818101172e-61, No Iterations 181
DILUPBiCGStab:  Solving for ILambda_187_0, Initial residual = 1, Final residual = 3.93086046137e-61, No Iterations 169
DILUPBiCGStab:  Solving for ILambda_188_0, Initial residual = 1, Final residual = 4.40777702387e-61, No Iterations 154
DILUPBiCGStab:  Solving for ILambda_189_0, Initial residual = 1, Final residual = 8.74452141274e-61, No Iterations 132
DILUPBiCGStab:  Solving for ILambda_190_0, Initial residual = 1, Final residual = 1.65066765599e-61, No Iterations 112
DILUPBiCGStab:  Solving for ILambda_191_0, Initial residual = 1, Final residual = 3.50509241345e-61, No Iterations 77
DILUPBiCGStab:  Solving for ILambda_192_0, Initial residual = 1, Final residual = 2.28399125764e-61, No Iterations 50
DILUPBiCGStab:  Solving for ILambda_193_0, Initial residual = 1, Final residual = 2.91123901799e-61, No Iterations 50
DILUPBiCGStab:  Solving for ILambda_194_0, Initial residual = 1, Final residual = 6.9252091729e-61, No Iterations 52
DILUPBiCGStab:  Solving for ILambda_195_0, Initial residual = 1, Final residual = 1.14231808936e-61, No Iterations 54
DILUPBiCGStab:  Solving for ILambda_196_0, Initial residual = 1, Final residual = 2.75956221004e-61, No Iterations 53
DILUPBiCGStab:  Solving for ILambda_197_0, Initial residual = 1, Final residual = 8.5687462688e-62, No Iterations 54
DILUPBiCGStab:  Solving for ILambda_198_0, Initial residual = 1, Final residual = 5.89416174274e-61, No Iterations 54
DILUPBiCGStab:  Solving for ILambda_199_0, Initial residual = 1, Final residual = 2.84213185282e-61, No Iterations 53
DILUPBiCGStab:  Solving for ILambda_200_0, Initial residual = 1, Final residual = 3.35529381387e-61, No Iterations 54
DILUPBiCGStab:  Solving for ILambda_201_0, Initial residual = 1, Final residual = 4.05005907871e-61, No Iterations 52
DILUPBiCGStab:  Solving for ILambda_202_0, Initial residual = 1, Final residual = 5.90240264086e-61, No Iterations 50
DILUPBiCGStab:  Solving for ILambda_203_0, Initial residual = 1, Final residual = 3.44507614669e-62, No Iterations 50
DILUPBiCGStab:  Solving for ILambda_204_0, Initial residual = 1, Final residual = 3.48675855262e-61, No Iterations 70
DILUPBiCGStab:  Solving for ILambda_205_0, Initial residual = 1, Final residual = 3.91822514196e-61, No Iterations 103
DILUPBiCGStab:  Solving for ILambda_206_0, Initial residual = 1, Final residual = 3.11878918933e-61, No Iterations 135
DILUPBiCGStab:  Solving for ILambda_207_0, Initial residual = 1, Final residual = 3.8760925132e-61, No Iterations 157
DILUPBiCGStab:  Solving for ILambda_208_0, Initial residual = 1, Final residual = 4.22786665963e-62, No Iterations 168
DILUPBiCGStab:  Solving for ILambda_209_0, Initial residual = 1, Final residual = 2.43608506572e-61, No Iterations 175
DILUPBiCGStab:  Solving for ILambda_210_0, Initial residual = 1, Final residual = 3.726888665e-61, No Iterations 176
DILUPBiCGStab:  Solving for ILambda_211_0, Initial residual = 1, Final residual = 3.01963524923e-61, No Iterations 167
DILUPBiCGStab:  Solving for ILambda_212_0, Initial residual = 1, Final residual = 6.69731655871e-61, No Iterations 156
DILUPBiCGStab:  Solving for ILambda_213_0, Initial residual = 1, Final residual = 8.93269174334e-61, No Iterations 139
DILUPBiCGStab:  Solving for ILambda_214_0, Initial residual = 1, Final residual = 3.5594828751e-61, No Iterations 109
DILUPBiCGStab:  Solving for ILambda_215_0, Initial residual = 1, Final residual = 9.25710049306e-61, No Iterations 67
DILUPBiCGStab:  Solving for ILambda_216_0, Initial residual = 1, Final residual = 2.99362802548e-71, No Iterations 3
DILUPBiCGStab:  Solving for ILambda_217_0, Initial residual = 1, Final residual = 6.85248891801e-71, No Iterations 3
DILUPBiCGStab:  Solving for ILambda_218_0, Initial residual = 1, Final residual = 2.27617954334e-71, No Iterations 3
DILUPBiCGStab:  Solving for ILambda_219_0, Initial residual = 1, Final residual = 5.71404172039e-69, No Iterations 3
DILUPBiCGStab:  Solving for ILambda_220_0, Initial residual = 1, Final residual = 4.16026806151e-71, No Iterations 3
DILUPBiCGStab:  Solving for ILambda_221_0, Initial residual = 1, Final residual = 3.02553955249e-70, No Iterations 3
DILUPBiCGStab:  Solving for ILambda_222_0, Initial residual = 1, Final residual = 4.10791650428e-71, No Iterations 3
DILUPBiCGStab:  Solving for ILambda_223_0, Initial residual = 1, Final residual = 1.16131787096e-71, No Iterations 3
DILUPBiCGStab:  Solving for ILambda_224_0, Initial residual = 1, Final residual = 2.18954276811e-69, No Iterations 3
DILUPBiCGStab:  Solving for ILambda_225_0, Initial residual = 1, Final residual = 6.71196105142e-70, No Iterations 3
DILUPBiCGStab:  Solving for ILambda_226_0, Initial residual = 1, Final residual = 3.65774793434e-71, No Iterations 3
DILUPBiCGStab:  Solving for ILambda_227_0, Initial residual = 1, Final residual = 1.3116263011e-70, No Iterations 3
DILUPBiCGStab:  Solving for ILambda_228_0, Initial residual = 1, Final residual = 8.40820478942e-61, No Iterations 66
DILUPBiCGStab:  Solving for ILambda_229_0, Initial residual = 1, Final residual = 9.05013835736e-61, No Iterations 109
DILUPBiCGStab:  Solving for ILambda_230_0, Initial residual = 1, Final residual = 9.70851099292e-61, No Iterations 138
DILUPBiCGStab:  Solving for ILambda_231_0, Initial residual = 1, Final residual = 9.53180973648e-61, No Iterations 156
DILUPBiCGStab:  Solving for ILambda_232_0, Initial residual = 1, Final residual = 5.64457938123e-61, No Iterations 166
DILUPBiCGStab:  Solving for ILambda_233_0, Initial residual = 1, Final residual = 1.7675521716e-61, No Iterations 176
DILUPBiCGStab:  Solving for ILambda_234_0, Initial residual = 1, Final residual = 8.44531806124e-61, No Iterations 177
DILUPBiCGStab:  Solving for ILambda_235_0, Initial residual = 1, Final residual = 7.97749490499e-61, No Iterations 168
DILUPBiCGStab:  Solving for ILambda_236_0, Initial residual = 1, Final residual = 6.00356851494e-61, No Iterations 158
DILUPBiCGStab:  Solving for ILambda_237_0, Initial residual = 1, Final residual = 3.68006215331e-61, No Iterations 135
DILUPBiCGStab:  Solving for ILambda_238_0, Initial residual = 1, Final residual = 9.91820147113e-62, No Iterations 105
DILUPBiCGStab:  Solving for ILambda_239_0, Initial residual = 1, Final residual = 4.13018412524e-61, No Iterations 70
DILUPBiCGStab:  Solving for ILambda_240_0, Initial residual = 1, Final residual = 4.90981743518e-61, No Iterations 39
DILUPBiCGStab:  Solving for ILambda_241_0, Initial residual = 1, Final residual = 7.80433837126e-62, No Iterations 40
DILUPBiCGStab:  Solving for ILambda_242_0, Initial residual = 1, Final residual = 8.96006072732e-62, No Iterations 42
DILUPBiCGStab:  Solving for ILambda_243_0, Initial residual = 1, Final residual = 1.77584622753e-61, No Iterations 43
DILUPBiCGStab:  Solving for ILambda_244_0, Initial residual = 1, Final residual = 9.80692614978e-61, No Iterations 43
DILUPBiCGStab:  Solving for ILambda_245_0, Initial residual = 1, Final residual = 3.23260262129e-61, No Iterations 42
DILUPBiCGStab:  Solving for ILambda_246_0, Initial residual = 1, Final residual = 2.31329988491e-61, No Iterations 43
DILUPBiCGStab:  Solving for ILambda_247_0, Initial residual = 1, Final residual = 3.61399074796e-61, No Iterations 42
DILUPBiCGStab:  Solving for ILambda_248_0, Initial residual = 1, Final residual = 1.48748361696e-61, No Iterations 43
DILUPBiCGStab:  Solving for ILambda_249_0, Initial residual = 1, Final residual = 9.07536042241e-62, No Iterations 42
DILUPBiCGStab:  Solving for ILambda_250_0, Initial residual = 1, Final residual = 1.36309806055e-61, No Iterations 40
DILUPBiCGStab:  Solving for ILambda_251_0, Initial residual = 1, Final residual = 4.55947505848e-61, No Iterations 39
DILUPBiCGStab:  Solving for ILambda_252_0, Initial residual = 1, Final residual = 1.80994831481e-61, No Iterations 65
DILUPBiCGStab:  Solving for ILambda_253_0, Initial residual = 1, Final residual = 4.2508082144e-61, No Iterations 105
DILUPBiCGStab:  Solving for ILambda_254_0, Initial residual = 1, Final residual = 1.94726455921e-61, No Iterations 134
DILUPBiCGStab:  Solving for ILambda_255_0, Initial residual = 1, Final residual = 4.2104515174e-61, No Iterations 147
DILUPBiCGStab:  Solving for ILambda_256_0, Initial residual = 1, Final residual = 3.83289552497e-61, No Iterations 157
DILUPBiCGStab:  Solving for ILambda_257_0, Initial residual = 1, Final residual = 7.33576543466e-61, No Iterations 164
DILUPBiCGStab:  Solving for ILambda_258_0, Initial residual = 1, Final residual = 3.11159905772e-61, No Iterations 161
DILUPBiCGStab:  Solving for ILambda_259_0, Initial residual = 1, Final residual = 9.22254285114e-61, No Iterations 161
DILUPBiCGStab:  Solving for ILambda_260_0, Initial residual = 1, Final residual = 5.94762652611e-61, No Iterations 152
DILUPBiCGStab:  Solving for ILambda_261_0, Initial residual = 1, Final residual = 8.56820743517e-61, No Iterations 133
DILUPBiCGStab:  Solving for ILambda_262_0, Initial residual = 1, Final residual = 8.83807337108e-61, No Iterations 107
DILUPBiCGStab:  Solving for ILambda_263_0, Initial residual = 1, Final residual = 8.21800350181e-61, No Iterations 64
DILUPBiCGStab:  Solving for ILambda_264_0, Initial residual = 1, Final residual = 2.2939644036e-71, No Iterations 3
DILUPBiCGStab:  Solving for ILambda_265_0, Initial residual = 1, Final residual = 2.02669677039e-70, No Iterations 3
DILUPBiCGStab:  Solving for ILambda_266_0, Initial residual = 1, Final residual = 4.83797608326e-73, No Iterations 3
DILUPBiCGStab:  Solving for ILambda_267_0, Initial residual = 1, Final residual = 2.37752559006e-72, No Iterations 3
DILUPBiCGStab:  Solving for ILambda_268_0, Initial residual = 1, Final residual = 1.6695139803e-70, No Iterations 3
DILUPBiCGStab:  Solving for ILambda_269_0, Initial residual = 1, Final residual = 1.34622140115e-70, No Iterations 3
DILUPBiCGStab:  Solving for ILambda_270_0, Initial residual = 1, Final residual = 4.6015600559e-67, No Iterations 3
DILUPBiCGStab:  Solving for ILambda_271_0, Initial residual = 1, Final residual = 3.34737442865e-71, No Iterations 3
DILUPBiCGStab:  Solving for ILambda_272_0, Initial residual = 1, Final residual = 9.42213007577e-71, No Iterations 3
DILUPBiCGStab:  Solving for ILambda_273_0, Initial residual = 1, Final residual = 7.20499092446e-72, No Iterations 3
DILUPBiCGStab:  Solving for ILambda_274_0, Initial residual = 1, Final residual = 2.11469255983e-72, No Iterations 3
DILUPBiCGStab:  Solving for ILambda_275_0, Initial residual = 1, Final residual = 4.13124532272e-72, No Iterations 3
DILUPBiCGStab:  Solving for ILambda_276_0, Initial residual = 1, Final residual = 8.61232713581e-61, No Iterations 64
DILUPBiCGStab:  Solving for ILambda_277_0, Initial residual = 1, Final residual = 7.15927088489e-61, No Iterations 107
DILUPBiCGStab:  Solving for ILambda_278_0, Initial residual = 1, Final residual = 3.64007808592e-61, No Iterations 134
DILUPBiCGStab:  Solving for ILambda_279_0, Initial residual = 1, Final residual = 6.30257825991e-61, No Iterations 150
DILUPBiCGStab:  Solving for ILambda_280_0, Initial residual = 1, Final residual = 5.27240758669e-61, No Iterations 160
DILUPBiCGStab:  Solving for ILambda_281_0, Initial residual = 1, Final residual = 3.17279806493e-61, No Iterations 162
DILUPBiCGStab:  Solving for ILambda_282_0, Initial residual = 1, Final residual = 8.12574407428e-61, No Iterations 162
DILUPBiCGStab:  Solving for ILambda_283_0, Initial residual = 1, Final residual = 3.52467832085e-61, No Iterations 157
DILUPBiCGStab:  Solving for ILambda_284_0, Initial residual = 1, Final residual = 7.33409346876e-61, No Iterations 148
[...]
DILUPBiCGStab:  Solving for ILambda_140_0, Initial residual = 4.50712731495e-15, Final residual = 5.41594406026e-61, No Iterations 114
DILUPBiCGStab:  Solving for ILambda_141_0, Initial residual = 3.62769595977e-15, Final residual = 6.35880875046e-61, No Iterations 104
DILUPBiCGStab:  Solving for ILambda_142_0, Initial residual = 2.64241670062e-15, Final residual = 8.0804152594e-61, No Iterations 83
DILUPBiCGStab:  Solving for ILambda_143_0, Initial residual = 2.45712887359e-15, Final residual = 2.23997806965e-61, No Iterations 53
DILUPBiCGStab:  Solving for ILambda_144_0, Initial residual = 2.25860695751e-15, Final residual = 2.42981009019e-61, No Iterations 38
DILUPBiCGStab:  Solving for ILambda_145_0, Initial residual = 2.30931932989e-15, Final residual = 5.68832580089e-61, No Iterations 41
DILUPBiCGStab:  Solving for ILambda_146_0, Initial residual = 2.70478972429e-15, Final residual = 1.07425762733e-61, No Iterations 40
DILUPBiCGStab:  Solving for ILambda_147_0, Initial residual = 2.69756671591e-15, Final residual = 9.51272952572e-62, No Iterations 40
DILUPBiCGStab:  Solving for ILambda_148_0, Initial residual = 2.65692642802e-15, Final residual = 6.57640634768e-61, No Iterations 42
DILUPBiCGStab:  Solving for ILambda_149_0, Initial residual = 2.63515012176e-15, Final residual = 3.65748197748e-61, No Iterations 41
DILUPBiCGStab:  Solving for ILambda_150_0, Initial residual = 2.57106010629e-15, Final residual = 7.01225248129e-62, No Iterations 42
DILUPBiCGStab:  Solving for ILambda_151_0, Initial residual = 2.5277925384e-15, Final residual = 7.85116213286e-62, No Iterations 42
DILUPBiCGStab:  Solving for ILambda_152_0, Initial residual = 2.65811019302e-15, Final residual = 4.75933934747e-62, No Iterations 39
DILUPBiCGStab:  Solving for ILambda_153_0, Initial residual = 2.82317756883e-15, Final residual = 1.59890482221e-61, No Iterations 39
DILUPBiCGStab:  Solving for ILambda_154_0, Initial residual = 2.59042115337e-15, Final residual = 3.33110518552e-61, No Iterations 39
DILUPBiCGStab:  Solving for ILambda_155_0, Initial residual = 2.51786173739e-15, Final residual = 7.49062073441e-61, No Iterations 40
DILUPBiCGStab:  Solving for ILambda_156_0, Initial residual = 2.97549425794e-15, Final residual = 2.02651109375e-61, No Iterations 58
DILUPBiCGStab:  Solving for ILambda_157_0, Initial residual = 3.71335986871e-15, Final residual = 6.93718895376e-61, No Iterations 83
DILUPBiCGStab:  Solving for ILambda_158_0, Initial residual = 3.90153366615e-15, Final residual = 9.22124459211e-61, No Iterations 99
DILUPBiCGStab:  Solving for ILambda_159_0, Initial residual = 4.08369996001e-15, Final residual = 5.71958745741e-62, No Iterations 119
DILUPBiCGStab:  Solving for ILambda_160_0, Initial residual = 4.68231912524e-15, Final residual = 4.69395842101e-61, No Iterations 121
DILUPBiCGStab:  Solving for ILambda_161_0, Initial residual = 5.36956536025e-15, Final residual = 2.18946284025e-62, No Iterations 135
DILUPBiCGStab:  Solving for ILambda_162_0, Initial residual = 4.83802363829e-15, Final residual = 6.63022852361e-61, No Iterations 129
DILUPBiCGStab:  Solving for ILambda_163_0, Initial residual = 5.33874583573e-15, Final residual = 5.95918432698e-61, No Iterations 126
DILUPBiCGStab:  Solving for ILambda_164_0, Initial residual = 4.22450046805e-15, Final residual = 3.3840306059e-62, No Iterations 116
DILUPBiCGStab:  Solving for ILambda_165_0, Initial residual = 4.55672396694e-15, Final residual = 9.48796291525e-61, No Iterations 102
DILUPBiCGStab:  Solving for ILambda_166_0, Initial residual = 3.99214264823e-15, Final residual = 4.30745387666e-61, No Iterations 82
DILUPBiCGStab:  Solving for ILambda_167_0, Initial residual = 2.71645866105e-15, Final residual = 7.61487776274e-62, No Iterations 50
DILUPBiCGStab:  Solving for ILambda_168_0, Initial residual = 2.35966907679e-15, Final residual = 2.19478950135e-74, No Iterations 2
DILUPBiCGStab:  Solving for ILambda_169_0, Initial residual = 2.45818114635e-15, Final residual = 1.50937311293e-72, No Iterations 2
DILUPBiCGStab:  Solving for ILambda_170_0, Initial residual = 2.50771314759e-15, Final residual = 3.37740328679e-72, No Iterations 2
DILUPBiCGStab:  Solving for ILambda_171_0, Initial residual = 2.56500652264e-15, Final residual = 4.1290267409e-74, No Iterations 2
DILUPBiCGStab:  Solving for ILambda_172_0, Initial residual = 2.49916343363e-15, Final residual = 3.11021251718e-71, No Iterations 2
DILUPBiCGStab:  Solving for ILambda_173_0, Initial residual = 2.54322263993e-15, Final residual = 6.36840621497e-73, No Iterations 2
DILUPBiCGStab:  Solving for ILambda_174_0, Initial residual = 2.54473353825e-15, Final residual = 1.2977789641e-72, No Iterations 2
DILUPBiCGStab:  Solving for ILambda_175_0, Initial residual = 2.48939957722e-15, Final residual = 3.42411921158e-74, No Iterations 2
DILUPBiCGStab:  Solving for ILambda_176_0, Initial residual = 2.44331488812e-15, Final residual = 9.876222678e-74, No Iterations 2
DILUPBiCGStab:  Solving for ILambda_177_0, Initial residual = 2.31220142844e-15, Final residual = 1.14071740999e-74, No Iterations 2
DILUPBiCGStab:  Solving for ILambda_178_0, Initial residual = 2.30061915468e-15, Final residual = 1.03789251865e-73, No Iterations 2
DILUPBiCGStab:  Solving for ILambda_179_0, Initial residual = 2.23018172352e-15, Final residual = 3.83726993441e-73, No Iterations 2
DILUPBiCGStab:  Solving for ILambda_180_0, Initial residual = 2.62191928314e-15, Final residual = 9.51282354856e-61, No Iterations 53
DILUPBiCGStab:  Solving for ILambda_181_0, Initial residual = 3.69271104987e-15, Final residual = 2.77480019984e-61, No Iterations 85
DILUPBiCGStab:  Solving for ILambda_182_0, Initial residual = 4.76147899089e-15, Final residual = 2.93612588334e-61, No Iterations 105
DILUPBiCGStab:  Solving for ILambda_183_0, Initial residual = 4.8661652776e-15, Final residual = 5.84661368557e-61, No Iterations 114
DILUPBiCGStab:  Solving for ILambda_184_0, Initial residual = 5.15909750126e-15, Final residual = 7.30588811778e-61, No Iterations 128
DILUPBiCGStab:  Solving for ILambda_185_0, Initial residual = 5.57132811258e-15, Final residual = 6.73761268399e-61, No Iterations 132
DILUPBiCGStab:  Solving for ILambda_186_0, Initial residual = 4.78012323981e-15, Final residual = 8.65246245861e-61, No Iterations 130
DILUPBiCGStab:  Solving for ILambda_187_0, Initial residual = 4.27735327638e-15, Final residual = 4.8729991587e-61, No Iterations 122
DILUPBiCGStab:  Solving for ILambda_188_0, Initial residual = 4.9580586057e-15, Final residual = 6.2759844569e-61, No Iterations 111
DILUPBiCGStab:  Solving for ILambda_189_0, Initial residual = 3.59834990552e-15, Final residual = 9.84547415288e-61, No Iterations 98
DILUPBiCGStab:  Solving for ILambda_190_0, Initial residual = 3.78321555514e-15, Final residual = 3.61288663082e-61, No Iterations 82
DILUPBiCGStab:  Solving for ILambda_191_0, Initial residual = 2.68121279059e-15, Final residual = 9.26579439196e-61, No Iterations 57
DILUPBiCGStab:  Solving for ILambda_192_0, Initial residual = 6.39088377735e-16, Final residual = 1.67283325713e-61, No Iterations 33
DILUPBiCGStab:  Solving for ILambda_193_0, Initial residual = 6.52762633289e-16, Final residual = 4.00075833829e-61, No Iterations 32
DILUPBiCGStab:  Solving for ILambda_194_0, Initial residual = 6.72303264313e-16, Final residual = 8.97513506816e-61, No Iterations 33
DILUPBiCGStab:  Solving for ILambda_195_0, Initial residual = 6.86934840126e-16, Final residual = 9.04402797428e-61, No Iterations 35
DILUPBiCGStab:  Solving for ILambda_196_0, Initial residual = 5.34282791965e-16, Final residual = 2.99371529032e-61, No Iterations 33
DILUPBiCGStab:  Solving for ILambda_197_0, Initial residual = 4.95335615382e-16, Final residual = 1.4731660496e-62, No Iterations 32
DILUPBiCGStab:  Solving for ILambda_198_0, Initial residual = 5.56663755514e-16, Final residual = 6.01092355489e-62, No Iterations 34
DILUPBiCGStab:  Solving for ILambda_199_0, Initial residual = 5.2266447236e-16, Final residual = 6.5050454936e-62, No Iterations 34
DILUPBiCGStab:  Solving for ILambda_200_0, Initial residual = 8.2068090562e-16, Final residual = 1.47784853375e-61, No Iterations 34
DILUPBiCGStab:  Solving for ILambda_201_0, Initial residual = 8.10861934783e-16, Final residual = 6.28113945463e-61, No Iterations 32
DILUPBiCGStab:  Solving for ILambda_202_0, Initial residual = 7.84732569294e-16, Final residual = 1.44313999869e-61, No Iterations 32
DILUPBiCGStab:  Solving for ILambda_203_0, Initial residual = 7.62708793869e-16, Final residual = 1.43625556281e-61, No Iterations 34
DILUPBiCGStab:  Solving for ILambda_204_0, Initial residual = 8.31419927959e-16, Final residual = 8.1808581678e-61, No Iterations 52
DILUPBiCGStab:  Solving for ILambda_205_0, Initial residual = 9.72935489428e-16, Final residual = 3.92678013739e-61, No Iterations 79
DILUPBiCGStab:  Solving for ILambda_206_0, Initial residual = 1.24494677178e-15, Final residual = 2.32211560277e-61, No Iterations 98
DILUPBiCGStab:  Solving for ILambda_207_0, Initial residual = 1.23550606926e-15, Final residual = 7.29369338818e-61, No Iterations 111
DILUPBiCGStab:  Solving for ILambda_208_0, Initial residual = 1.09509775154e-15, Final residual = 8.11750673596e-61, No Iterations 123
DILUPBiCGStab:  Solving for ILambda_209_0, Initial residual = 1.45311309786e-15, Final residual = 6.01994781126e-61, No Iterations 123
DILUPBiCGStab:  Solving for ILambda_210_0, Initial residual = 1.27874191727e-15, Final residual = 5.21031497474e-61, No Iterations 133
DILUPBiCGStab:  Solving for ILambda_211_0, Initial residual = 1.13192791459e-15, Final residual = 6.23513098501e-61, No Iterations 123
DILUPBiCGStab:  Solving for ILambda_212_0, Initial residual = 1.47036497873e-15, Final residual = 8.78906889611e-61, No Iterations 110
DILUPBiCGStab:  Solving for ILambda_213_0, Initial residual = 1.09776030461e-15, Final residual = 6.0813631459e-61, No Iterations 100
DILUPBiCGStab:  Solving for ILambda_214_0, Initial residual = 1.0300826575e-15, Final residual = 5.0575154473e-61, No Iterations 78
DILUPBiCGStab:  Solving for ILambda_215_0, Initial residual = 8.68921275181e-16, Final residual = 7.22012804799e-61, No Iterations 49
DILUPBiCGStab:  Solving for ILambda_216_0, Initial residual = 7.58906862905e-16, Final residual = 9.14502895991e-73, No Iterations 2
DILUPBiCGStab:  Solving for ILambda_217_0, Initial residual = 7.8883919106e-16, Final residual = 1.30485495518e-72, No Iterations 2
DILUPBiCGStab:  Solving for ILambda_218_0, Initial residual = 8.03445607675e-16, Final residual = 6.55107417647e-61, No Iterations 2
DILUPBiCGStab:  Solving for ILambda_219_0, Initial residual = 8.24331909275e-16, Final residual = 1.871378418e-75, No Iterations 2
DILUPBiCGStab:  Solving for ILambda_220_0, Initial residual = 5.60815943474e-16, Final residual = 6.25620487853e-61, No Iterations 2
DILUPBiCGStab:  Solving for ILambda_221_0, Initial residual = 5.40503423771e-16, Final residual = 2.40081832599e-75, No Iterations 2
DILUPBiCGStab:  Solving for ILambda_222_0, Initial residual = 5.232099163e-16, Final residual = 1.48496205813e-75, No Iterations 2
DILUPBiCGStab:  Solving for ILambda_223_0, Initial residual = 5.48460127926e-16, Final residual = 1.5930253108e-74, No Iterations 2
DILUPBiCGStab:  Solving for ILambda_224_0, Initial residual = 6.65887760252e-16, Final residual = 1.42935104194e-72, No Iterations 2
DILUPBiCGStab:  Solving for ILambda_225_0, Initial residual = 6.66488593466e-16, Final residual = 4.63647766953e-61, No Iterations 2
DILUPBiCGStab:  Solving for ILambda_226_0, Initial residual = 6.67690072675e-16, Final residual = 2.95206971603e-72, No Iterations 2
DILUPBiCGStab:  Solving for ILambda_227_0, Initial residual = 6.48136694749e-16, Final residual = 2.10638955644e-72, No Iterations 2
DILUPBiCGStab:  Solving for ILambda_228_0, Initial residual = 8.39480316215e-16, Final residual = 3.32963854883e-61, No Iterations 49
DILUPBiCGStab:  Solving for ILambda_229_0, Initial residual = 9.60223628993e-16, Final residual = 3.7510271073e-61, No Iterations 80
DILUPBiCGStab:  Solving for ILambda_230_0, Initial residual = 1.168557298e-15, Final residual = 8.48233588123e-61, No Iterations 98
DILUPBiCGStab:  Solving for ILambda_231_0, Initial residual = 1.15707534635e-15, Final residual = 6.90371115635e-61, No Iterations 113
DILUPBiCGStab:  Solving for ILambda_232_0, Initial residual = 1.23185406577e-15, Final residual = 5.96907039045e-61, No Iterations 120
DILUPBiCGStab:  Solving for ILambda_233_0, Initial residual = 1.2806661339e-15, Final residual = 8.27036798926e-61, No Iterations 130
DILUPBiCGStab:  Solving for ILambda_234_0, Initial residual = 1.03867648371e-15, Final residual = 5.80743158596e-61, No Iterations 131
DILUPBiCGStab:  Solving for ILambda_235_0, Initial residual = 1.21699647542e-15, Final residual = 5.3835044521e-61, No Iterations 120
DILUPBiCGStab:  Solving for ILambda_236_0, Initial residual = 1.27759178418e-15, Final residual = 8.50556298843e-61, No Iterations 111
DILUPBiCGStab:  Solving for ILambda_237_0, Initial residual = 9.41142105546e-16, Final residual = 1.43248007908e-61, No Iterations 97
DILUPBiCGStab:  Solving for ILambda_238_0, Initial residual = 8.68234376474e-16, Final residual = 1.84494782612e-61, No Iterations 79
DILUPBiCGStab:  Solving for ILambda_239_0, Initial residual = 7.33965660095e-16, Final residual = 1.39439368775e-61, No Iterations 53
DILUPBiCGStab:  Solving for ILambda_240_0, Initial residual = 1.73861224815e-16, Final residual = 5.30455456163e-61, No Iterations 26
DILUPBiCGStab:  Solving for ILambda_241_0, Initial residual = 1.84467980117e-16, Final residual = 5.13688841544e-62, No Iterations 26
DILUPBiCGStab:  Solving for ILambda_242_0, Initial residual = 1.97162297627e-16, Final residual = 7.64687215335e-62, No Iterations 26
DILUPBiCGStab:  Solving for ILambda_243_0, Initial residual = 2.62966189904e-16, Final residual = 1.4390565618e-61, No Iterations 27
DILUPBiCGStab:  Solving for ILambda_244_0, Initial residual = 2.61111491694e-16, Final residual = 1.06984784248e-61, No Iterations 27
DILUPBiCGStab:  Solving for ILambda_245_0, Initial residual = 2.85699292608e-16, Final residual = 6.15563741785e-61, No Iterations 27
DILUPBiCGStab:  Solving for ILambda_246_0, Initial residual = 2.86070018341e-16, Final residual = 3.29086273832e-61, No Iterations 26
DILUPBiCGStab:  Solving for ILambda_247_0, Initial residual = 2.93783268609e-16, Final residual = 5.88504686607e-61, No Iterations 26
DILUPBiCGStab:  Solving for ILambda_248_0, Initial residual = 2.90548949245e-16, Final residual = 3.26405996123e-61, No Iterations 28
DILUPBiCGStab:  Solving for ILambda_249_0, Initial residual = 2.37463896331e-16, Final residual = 4.51087285527e-61, No Iterations 27
DILUPBiCGStab:  Solving for ILambda_250_0, Initial residual = 2.16389697422e-16, Final residual = 2.71807478535e-61, No Iterations 27
DILUPBiCGStab:  Solving for ILambda_251_0, Initial residual = 2.0133602586e-16, Final residual = 1.18559411973e-61, No Iterations 25
DILUPBiCGStab:  Solving for ILambda_252_0, Initial residual = 2.10122374111e-16, Final residual = 8.85503828081e-61, No Iterations 47
DILUPBiCGStab:  Solving for ILambda_253_0, Initial residual = 3.05172301314e-16, Final residual = 4.59113658176e-61, No Iterations 78
DILUPBiCGStab:  Solving for ILambda_254_0, Initial residual = 3.18680626057e-16, Final residual = 5.39875842321e-61, No Iterations 94
DILUPBiCGStab:  Solving for ILambda_255_0, Initial residual = 3.9492619129e-16, Final residual = 4.83461354238e-61, No Iterations 105
DILUPBiCGStab:  Solving for ILambda_256_0, Initial residual = 3.97735646436e-16, Final residual = 1.50308110996e-61, No Iterations 123
DILUPBiCGStab:  Solving for ILambda_257_0, Initial residual = 4.43906638041e-16, Final residual = 4.59168065115e-61, No Iterations 130
DILUPBiCGStab:  Solving for ILambda_258_0, Initial residual = 4.16806914602e-16, Final residual = 6.16526170371e-61, No Iterations 128
DILUPBiCGStab:  Solving for ILambda_259_0, Initial residual = 4.90644297179e-16, Final residual = 6.38705249024e-61, No Iterations 119
DILUPBiCGStab:  Solving for ILambda_260_0, Initial residual = 3.42369144952e-16, Final residual = 4.29003456844e-61, No Iterations 107
DILUPBiCGStab:  Solving for ILambda_261_0, Initial residual = 4.06619745504e-16, Final residual = 4.56055996796e-61, No Iterations 97
DILUPBiCGStab:  Solving for ILambda_262_0, Initial residual = 3.43166732581e-16, Final residual = 4.74183901653e-61, No Iterations 72
DILUPBiCGStab:  Solving for ILambda_263_0, Initial residual = 2.61309032832e-16, Final residual = 3.54595834934e-61, No Iterations 47
DILUPBiCGStab:  Solving for ILambda_264_0, Initial residual = 2.07719415693e-16, Final residual = 3.89732338428e-61, No Iterations 2
DILUPBiCGStab:  Solving for ILambda_265_0, Initial residual = 2.18329923364e-16, Final residual = 3.01425388855e-61, No Iterations 2
DILUPBiCGStab:  Solving for ILambda_266_0, Initial residual = 2.35357255595e-16, Final residual = 7.99255764862e-62, No Iterations 2
DILUPBiCGStab:  Solving for ILambda_267_0, Initial residual = 2.94642842034e-16, Final residual = 8.16477823873e-73, No Iterations 2
DILUPBiCGStab:  Solving for ILambda_268_0, Initial residual = 2.95437485926e-16, Final residual = 6.074354715e-61, No Iterations 2
DILUPBiCGStab:  Solving for ILambda_269_0, Initial residual = 2.85877739284e-16, Final residual = 4.52306848104e-61, No Iterations 2
DILUPBiCGStab:  Solving for ILambda_270_0, Initial residual = 2.85779544318e-16, Final residual = 2.42469632463e-61, No Iterations 2
DILUPBiCGStab:  Solving for ILambda_271_0, Initial residual = 2.65358419015e-16, Final residual = 2.00617740277e-61, No Iterations 2
DILUPBiCGStab:  Solving for ILambda_272_0, Initial residual = 2.64127169813e-16, Final residual = 4.06649724208e-61, No Iterations 2
DILUPBiCGStab:  Solving for ILambda_273_0, Initial residual = 1.98544796792e-16, Final residual = 4.36693022337e-73, No Iterations 2
DILUPBiCGStab:  Solving for ILambda_274_0, Initial residual = 1.86930361009e-16, Final residual = 9.25242946376e-75, No Iterations 2
DILUPBiCGStab:  Solving for ILambda_275_0, Initial residual = 1.78796319557e-16, Final residual = 2.13381040829e-61, No Iterations 2
DILUPBiCGStab:  Solving for ILambda_276_0, Initial residual = 2.70694324171e-16, Final residual = 3.83150708901e-61, No Iterations 46
DILUPBiCGStab:  Solving for ILambda_277_0, Initial residual = 3.06521519114e-16, Final residual = 1.6742863396e-61, No Iterations 75
DILUPBiCGStab:  Solving for ILambda_278_0, Initial residual = 3.78692475231e-16, Final residual = 9.08680426141e-61, No Iterations 91
DILUPBiCGStab:  Solving for ILambda_279_0, Initial residual = 3.98875673625e-16, Final residual = 3.96284286064e-61, No Iterations 108
DILUPBiCGStab:  Solving for ILambda_280_0, Initial residual = 4.6045237238e-16, Final residual = 8.6923935129e-61, No Iterations 121
DILUPBiCGStab:  Solving for ILambda_281_0, Initial residual = 4.06286083382e-16, Final residual = 4.45221739178e-61, No Iterations 130
DILUPBiCGStab:  Solving for ILambda_282_0, Initial residual = 4.71850236299e-16, Final residual = 7.36826631169e-61, No Iterations 129
DILUPBiCGStab:  Solving for ILambda_283_0, Initial residual = 3.75994119299e-16, Final residual = 2.48874786524e-61, No Iterations 120
DILUPBiCGStab:  Solving for ILambda_284_0, Initial residual = 3.88619822623e-16, Final residual = 8.69114828612e-61, No Iterations 109
DILUPBiCGStab:  Solving for ILambda_285_0, Initial residual = 3.17050639805e-16, Final residual = 7.67571037139e-61, No Iterations 93
DILUPBiCGStab:  Solving for ILambda_286_0, Initial residual = 2.64704383416e-16, Final residual = 1.07317727735e-61, No Iterations 77
DILUPBiCGStab:  Solving for ILambda_287_0, Initial residual = 2.33345165007e-16, Final residual = 6.83655012753e-61, No Iterations 47
min/max(T) = 1000, 1000
ExecutionTime = 7722.89 s  ClockTime = 7723 s

writeObjects writeObjects1.writeObjects write:
    writing object a
    writing object qem
End

