/*---------------------------------------------------------------------------*\
| =========                 |                                                 |
| \\      /  F ield         | OpenFOAM: The Open Source CFD Toolbox           |
|  \\    /   O peration     | Version:  2306                                  |
|   \\  /    A nd           | Website:  www.openfoam.com                      |
|    \\/     M anipulation  |                                                 |
\*---------------------------------------------------------------------------*/
Build  : _fbf00d6b-20230626 OPENFOAM=2306 version=2306
Arch   : "LSB;label=32;scalar=64"
Exec   : fireRADFoam_MaCFP
Date   : Mar 12 2024
Time   : 19:59:31
Host   : pop-os
PID    : 175743
I/O    : uncollated
Case   : /home/rafay/Desktop/Study/Radiative_Heat_Transfer/Local_copy_RHT2324/01_Projects/02_Rafay/Case_1_q1D_SolidAngle/new_case3/th_4-ph_8/tau_1/res_4
nProcs : 1
trapFpe: Floating point exception trapping enabled (FOAM_SIGFPE).
fileModificationChecking : Monitoring run-time modified files using timeStampMaster (fileModificationSkew 5, maxFileModificationPolls 20)
allowSystemOperations : Allowing user-supplied system call operations

// * * * * * * * * * * * * * * * * * * * * * * * * * * * * * * * * * * * * * //
Create time

Create mesh for time = 0


PIMPLE: no residual control data found. Calculations will employ 10 corrector loops

Reading thermophysical properties

Selecting thermodynamics package 
{
    type            hePsiThermo;
    mixture         singleStepReactingMixture;
    transport       sutherland;
    thermo          janaf;
    energy          sensibleEnthalpy;
    equationOfState perfectGas;
    specie          specie;
}

Selecting chemistryReader foamChemistryReader
    elements not defined in "/home/rafay/Desktop/Study/Radiative_Heat_Transfer/Local_copy_RHT2324/01_Projects/02_Rafay/Case_1_q1D_SolidAngle/new_case3/th_4-ph_8/tau_1/res_4/constant/reactions"
Fuel heat of combustion :47168962.4726
stoichiometric air-fuel ratio :14.6914056505
stoichiometric oxygen-fuel ratio :3.42181919285
Maximum products mass concentrations:
    H2O: 0.0818486943001
    CO2: 0.199950099979
    N2: 0.718201205721
Creating component thermo properties:
    multi-component carrier - 6 species
    no liquid components
    no solid components
Creating field rho


Reading field U

Reading/calculating face flux field phi

Selecting radiationModel fvDOM
Selecting absorptionEmissionModel constantAbsorptionEmission
Selecting scatterModel none
Selecting sootModel none
fvDOM : Allocated 128 rays with average orientation:
	I0 : dAve : 	(0.00274192284156 0.0278392098 0.0490873852123) : omega : 	0.0575094490319 : d : 	(0.0375095356919 0.38084070704 0.923879532511)
	I1 : dAve : 	(0.00812039796756 0.0267693645798 0.0490873852123) : omega : 	0.0575094490319 : d : 	(0.111087136655 0.366205212247 0.923879532511)
	I2 : dAve : 	(0.0131868107536 0.0246707876912 0.0490873852123) : omega : 	0.0575094490319 : d : 	(0.180395721254 0.337496656517 0.923879532511)
	I3 : dAve : 	(0.0177464617977 0.0216241262672 0.0490873852123) : omega : 	0.0575094490319 : d : 	(0.242771799453 0.295818293547 0.923879532511)
	I4 : dAve : 	(0.0216241262672 0.0177464617977 0.0490873852123) : omega : 	0.0575094490319 : d : 	(0.295818293547 0.242771799453 0.923879532511)
	I5 : dAve : 	(0.0246707876912 0.0131868107536 0.0490873852123) : omega : 	0.0575094490319 : d : 	(0.337496656517 0.180395721254 0.923879532511)
	I6 : dAve : 	(0.0267693645798 0.00812039796756 0.0490873852123) : omega : 	0.0575094490319 : d : 	(0.366205212247 0.111087136655 0.923879532511)
	I7 : dAve : 	(0.0278392098 0.00274192284156 0.0490873852123) : omega : 	0.0575094490319 : d : 	(0.38084070704 0.0375095356919 0.923879532511)
	I8 : dAve : 	(0.0278392098 -0.00274192284156 0.0490873852123) : omega : 	0.0575094490319 : d : 	(0.38084070704 -0.0375095356919 0.923879532511)
	I9 : dAve : 	(0.0267693645798 -0.00812039796756 0.0490873852123) : omega : 	0.0575094490319 : d : 	(0.366205212247 -0.111087136655 0.923879532511)
	I10 : dAve : 	(0.0246707876912 -0.0131868107536 0.0490873852123) : omega : 	0.0575094490319 : d : 	(0.337496656517 -0.180395721254 0.923879532511)
	I11 : dAve : 	(0.0216241262672 -0.0177464617977 0.0490873852123) : omega : 	0.0575094490319 : d : 	(0.295818293547 -0.242771799453 0.923879532511)
	I12 : dAve : 	(0.0177464617977 -0.0216241262672 0.0490873852123) : omega : 	0.0575094490319 : d : 	(0.242771799453 -0.295818293547 0.923879532511)
	I13 : dAve : 	(0.0131868107536 -0.0246707876912 0.0490873852123) : omega : 	0.0575094490319 : d : 	(0.180395721254 -0.337496656517 0.923879532511)
	I14 : dAve : 	(0.00812039796756 -0.0267693645798 0.0490873852123) : omega : 	0.0575094490319 : d : 	(0.111087136655 -0.366205212247 0.923879532511)
	I15 : dAve : 	(0.00274192284156 -0.0278392098 0.0490873852123) : omega : 	0.0575094490319 : d : 	(0.0375095356919 -0.38084070704 0.923879532511)
	I16 : dAve : 	(-0.00274192284156 -0.0278392098 0.0490873852123) : omega : 	0.0575094490319 : d : 	(-0.0375095356919 -0.38084070704 0.923879532511)
	I17 : dAve : 	(-0.00812039796756 -0.0267693645798 0.0490873852123) : omega : 	0.0575094490319 : d : 	(-0.111087136655 -0.366205212247 0.923879532511)
	I18 : dAve : 	(-0.0131868107536 -0.0246707876912 0.0490873852123) : omega : 	0.0575094490319 : d : 	(-0.180395721254 -0.337496656517 0.923879532511)
	I19 : dAve : 	(-0.0177464617977 -0.0216241262672 0.0490873852123) : omega : 	0.0575094490319 : d : 	(-0.242771799453 -0.295818293547 0.923879532511)
	I20 : dAve : 	(-0.0216241262672 -0.0177464617977 0.0490873852123) : omega : 	0.0575094490319 : d : 	(-0.295818293547 -0.242771799453 0.923879532511)
	I21 : dAve : 	(-0.0246707876912 -0.0131868107536 0.0490873852123) : omega : 	0.0575094490319 : d : 	(-0.337496656517 -0.180395721254 0.923879532511)
	I22 : dAve : 	(-0.0267693645798 -0.00812039796756 0.0490873852123) : omega : 	0.0575094490319 : d : 	(-0.366205212247 -0.111087136655 0.923879532511)
	I23 : dAve : 	(-0.0278392098 -0.00274192284156 0.0490873852123) : omega : 	0.0575094490319 : d : 	(-0.38084070704 -0.0375095356919 0.923879532511)
	I24 : dAve : 	(-0.0278392098 0.00274192284156 0.0490873852123) : omega : 	0.0575094490319 : d : 	(-0.38084070704 0.0375095356919 0.923879532511)
	I25 : dAve : 	(-0.0267693645798 0.00812039796756 0.0490873852123) : omega : 	0.0575094490319 : d : 	(-0.366205212247 0.111087136655 0.923879532511)
	I26 : dAve : 	(-0.0246707876912 0.0131868107536 0.0490873852123) : omega : 	0.0575094490319 : d : 	(-0.337496656517 0.180395721254 0.923879532511)
	I27 : dAve : 	(-0.0216241262672 0.0177464617977 0.0490873852123) : omega : 	0.0575094490319 : d : 	(-0.295818293547 0.242771799453 0.923879532511)
	I28 : dAve : 	(-0.0177464617977 0.0216241262672 0.0490873852123) : omega : 	0.0575094490319 : d : 	(-0.242771799453 0.295818293547 0.923879532511)
	I29 : dAve : 	(-0.0131868107536 0.0246707876912 0.0490873852123) : omega : 	0.0575094490319 : d : 	(-0.180395721254 0.337496656517 0.923879532511)
	I30 : dAve : 	(-0.00812039796756 0.0267693645798 0.0490873852123) : omega : 	0.0575094490319 : d : 	(-0.111087136655 0.366205212247 0.923879532511)
	I31 : dAve : 	(-0.00274192284156 0.0278392098 0.0490873852123) : omega : 	0.0575094490319 : d : 	(-0.0375095356919 0.38084070704 0.923879532511)
	I32 : dAve : 	(0.0123492826399 0.125384370808 0.0490873852123) : omega : 	0.138840091817 : d : 	(0.0905560297858 0.91943080004 0.382683432365)
	I33 : dAve : 	(0.0365732719135 0.120565919754 0.0490873852123) : omega : 	0.138840091817 : d : 	(0.268188071917 0.884097590017 0.382683432365)
	I34 : dAve : 	(0.059391770858 0.111114188018 0.0490873852123) : omega : 	0.138840091817 : d : 	(0.435513796846 0.814789005418 0.382683432365)
	I35 : dAve : 	(0.0799278773557 0.0973924003507 0.0490873852123) : omega : 	0.138840091817 : d : 	(0.586102970801 0.714168536279 0.382683432365)
	I36 : dAve : 	(0.0973924003507 0.0799278773557 0.0490873852123) : omega : 	0.138840091817 : d : 	(0.714168536279 0.586102970801 0.382683432365)
	I37 : dAve : 	(0.111114188018 0.059391770858 0.0490873852123) : omega : 	0.138840091817 : d : 	(0.814789005418 0.435513796846 0.382683432365)
	I38 : dAve : 	(0.120565919754 0.0365732719135 0.0490873852123) : omega : 	0.138840091817 : d : 	(0.884097590017 0.268188071917 0.382683432365)
	I39 : dAve : 	(0.125384370808 0.0123492826399 0.0490873852123) : omega : 	0.138840091817 : d : 	(0.91943080004 0.0905560297858 0.382683432365)
	I40 : dAve : 	(0.125384370808 -0.0123492826399 0.0490873852123) : omega : 	0.138840091817 : d : 	(0.91943080004 -0.0905560297858 0.382683432365)
	I41 : dAve : 	(0.120565919754 -0.0365732719135 0.0490873852123) : omega : 	0.138840091817 : d : 	(0.884097590017 -0.268188071917 0.382683432365)
	I42 : dAve : 	(0.111114188018 -0.059391770858 0.0490873852123) : omega : 	0.138840091817 : d : 	(0.814789005418 -0.435513796846 0.382683432365)
	I43 : dAve : 	(0.0973924003507 -0.0799278773557 0.0490873852123) : omega : 	0.138840091817 : d : 	(0.714168536279 -0.586102970801 0.382683432365)
	I44 : dAve : 	(0.0799278773557 -0.0973924003507 0.0490873852123) : omega : 	0.138840091817 : d : 	(0.586102970801 -0.714168536279 0.382683432365)
	I45 : dAve : 	(0.059391770858 -0.111114188018 0.0490873852123) : omega : 	0.138840091817 : d : 	(0.435513796846 -0.814789005418 0.382683432365)
	I46 : dAve : 	(0.0365732719135 -0.120565919754 0.0490873852123) : omega : 	0.138840091817 : d : 	(0.268188071917 -0.884097590017 0.382683432365)
	I47 : dAve : 	(0.0123492826399 -0.125384370808 0.0490873852123) : omega : 	0.138840091817 : d : 	(0.0905560297858 -0.91943080004 0.382683432365)
	I48 : dAve : 	(-0.0123492826399 -0.125384370808 0.0490873852123) : omega : 	0.138840091817 : d : 	(-0.0905560297858 -0.91943080004 0.382683432365)
	I49 : dAve : 	(-0.0365732719135 -0.120565919754 0.0490873852123) : omega : 	0.138840091817 : d : 	(-0.268188071917 -0.884097590017 0.382683432365)
	I50 : dAve : 	(-0.059391770858 -0.111114188018 0.0490873852123) : omega : 	0.138840091817 : d : 	(-0.435513796846 -0.814789005418 0.382683432365)
	I51 : dAve : 	(-0.0799278773557 -0.0973924003507 0.0490873852123) : omega : 	0.138840091817 : d : 	(-0.586102970801 -0.714168536279 0.382683432365)
	I52 : dAve : 	(-0.0973924003507 -0.0799278773557 0.0490873852123) : omega : 	0.138840091817 : d : 	(-0.714168536279 -0.586102970801 0.382683432365)
	I53 : dAve : 	(-0.111114188018 -0.059391770858 0.0490873852123) : omega : 	0.138840091817 : d : 	(-0.814789005418 -0.435513796846 0.382683432365)
	I54 : dAve : 	(-0.120565919754 -0.0365732719135 0.0490873852123) : omega : 	0.138840091817 : d : 	(-0.884097590017 -0.268188071917 0.382683432365)
	I55 : dAve : 	(-0.125384370808 -0.0123492826399 0.0490873852123) : omega : 	0.138840091817 : d : 	(-0.91943080004 -0.0905560297858 0.382683432365)
	I56 : dAve : 	(-0.125384370808 0.0123492826399 0.0490873852123) : omega : 	0.138840091817 : d : 	(-0.91943080004 0.0905560297858 0.382683432365)
	I57 : dAve : 	(-0.120565919754 0.0365732719135 0.0490873852123) : omega : 	0.138840091817 : d : 	(-0.884097590017 0.268188071917 0.382683432365)
	I58 : dAve : 	(-0.111114188018 0.059391770858 0.0490873852123) : omega : 	0.138840091817 : d : 	(-0.814789005418 0.435513796846 0.382683432365)
	I59 : dAve : 	(-0.0973924003507 0.0799278773557 0.0490873852123) : omega : 	0.138840091817 : d : 	(-0.714168536279 0.586102970801 0.382683432365)
	I60 : dAve : 	(-0.0799278773557 0.0973924003507 0.0490873852123) : omega : 	0.138840091817 : d : 	(-0.586102970801 0.714168536279 0.382683432365)
	I61 : dAve : 	(-0.059391770858 0.111114188018 0.0490873852123) : omega : 	0.138840091817 : d : 	(-0.435513796846 0.814789005418 0.382683432365)
	I62 : dAve : 	(-0.0365732719135 0.120565919754 0.0490873852123) : omega : 	0.138840091817 : d : 	(-0.268188071917 0.884097590017 0.382683432365)
	I63 : dAve : 	(-0.0123492826399 0.125384370808 0.0490873852123) : omega : 	0.138840091817 : d : 	(-0.0905560297858 0.91943080004 0.382683432365)
	I64 : dAve : 	(0.0123492826399 0.125384370808 -0.0490873852123) : omega : 	0.138840091817 : d : 	(0.0905560297858 0.91943080004 -0.382683432365)
	I65 : dAve : 	(0.0365732719135 0.120565919754 -0.0490873852123) : omega : 	0.138840091817 : d : 	(0.268188071917 0.884097590017 -0.382683432365)
	I66 : dAve : 	(0.059391770858 0.111114188018 -0.0490873852123) : omega : 	0.138840091817 : d : 	(0.435513796846 0.814789005418 -0.382683432365)
	I67 : dAve : 	(0.0799278773557 0.0973924003507 -0.0490873852123) : omega : 	0.138840091817 : d : 	(0.586102970801 0.714168536279 -0.382683432365)
	I68 : dAve : 	(0.0973924003507 0.0799278773557 -0.0490873852123) : omega : 	0.138840091817 : d : 	(0.714168536279 0.586102970801 -0.382683432365)
	I69 : dAve : 	(0.111114188018 0.059391770858 -0.0490873852123) : omega : 	0.138840091817 : d : 	(0.814789005418 0.435513796846 -0.382683432365)
	I70 : dAve : 	(0.120565919754 0.0365732719135 -0.0490873852123) : omega : 	0.138840091817 : d : 	(0.884097590017 0.268188071917 -0.382683432365)
	I71 : dAve : 	(0.125384370808 0.0123492826399 -0.0490873852123) : omega : 	0.138840091817 : d : 	(0.91943080004 0.0905560297858 -0.382683432365)
	I72 : dAve : 	(0.125384370808 -0.0123492826399 -0.0490873852123) : omega : 	0.138840091817 : d : 	(0.91943080004 -0.0905560297858 -0.382683432365)
	I73 : dAve : 	(0.120565919754 -0.0365732719135 -0.0490873852123) : omega : 	0.138840091817 : d : 	(0.884097590017 -0.268188071917 -0.382683432365)
	I74 : dAve : 	(0.111114188018 -0.059391770858 -0.0490873852123) : omega : 	0.138840091817 : d : 	(0.814789005418 -0.435513796846 -0.382683432365)
	I75 : dAve : 	(0.0973924003507 -0.0799278773557 -0.0490873852123) : omega : 	0.138840091817 : d : 	(0.714168536279 -0.586102970801 -0.382683432365)
	I76 : dAve : 	(0.0799278773557 -0.0973924003507 -0.0490873852123) : omega : 	0.138840091817 : d : 	(0.586102970801 -0.714168536279 -0.382683432365)
	I77 : dAve : 	(0.059391770858 -0.111114188018 -0.0490873852123) : omega : 	0.138840091817 : d : 	(0.435513796846 -0.814789005418 -0.382683432365)
	I78 : dAve : 	(0.0365732719135 -0.120565919754 -0.0490873852123) : omega : 	0.138840091817 : d : 	(0.268188071917 -0.884097590017 -0.382683432365)
	I79 : dAve : 	(0.0123492826399 -0.125384370808 -0.0490873852123) : omega : 	0.138840091817 : d : 	(0.0905560297858 -0.91943080004 -0.382683432365)
	I80 : dAve : 	(-0.0123492826399 -0.125384370808 -0.0490873852123) : omega : 	0.138840091817 : d : 	(-0.0905560297858 -0.91943080004 -0.382683432365)
	I81 : dAve : 	(-0.0365732719135 -0.120565919754 -0.0490873852123) : omega : 	0.138840091817 : d : 	(-0.268188071917 -0.884097590017 -0.382683432365)
	I82 : dAve : 	(-0.059391770858 -0.111114188018 -0.0490873852123) : omega : 	0.138840091817 : d : 	(-0.435513796846 -0.814789005418 -0.382683432365)
	I83 : dAve : 	(-0.0799278773557 -0.0973924003507 -0.0490873852123) : omega : 	0.138840091817 : d : 	(-0.586102970801 -0.714168536279 -0.382683432365)
	I84 : dAve : 	(-0.0973924003507 -0.0799278773557 -0.0490873852123) : omega : 	0.138840091817 : d : 	(-0.714168536279 -0.586102970801 -0.382683432365)
	I85 : dAve : 	(-0.111114188018 -0.059391770858 -0.0490873852123) : omega : 	0.138840091817 : d : 	(-0.814789005418 -0.435513796846 -0.382683432365)
	I86 : dAve : 	(-0.120565919754 -0.0365732719135 -0.0490873852123) : omega : 	0.138840091817 : d : 	(-0.884097590017 -0.268188071917 -0.382683432365)
	I87 : dAve : 	(-0.125384370808 -0.0123492826399 -0.0490873852123) : omega : 	0.138840091817 : d : 	(-0.91943080004 -0.0905560297858 -0.382683432365)
	I88 : dAve : 	(-0.125384370808 0.0123492826399 -0.0490873852123) : omega : 	0.138840091817 : d : 	(-0.91943080004 0.0905560297858 -0.382683432365)
	I89 : dAve : 	(-0.120565919754 0.0365732719135 -0.0490873852123) : omega : 	0.138840091817 : d : 	(-0.884097590017 0.268188071917 -0.382683432365)
	I90 : dAve : 	(-0.111114188018 0.059391770858 -0.0490873852123) : omega : 	0.138840091817 : d : 	(-0.814789005418 0.435513796846 -0.382683432365)
	I91 : dAve : 	(-0.0973924003507 0.0799278773557 -0.0490873852123) : omega : 	0.138840091817 : d : 	(-0.714168536279 0.586102970801 -0.382683432365)
	I92 : dAve : 	(-0.0799278773557 0.0973924003507 -0.0490873852123) : omega : 	0.138840091817 : d : 	(-0.586102970801 0.714168536279 -0.382683432365)
	I93 : dAve : 	(-0.059391770858 0.111114188018 -0.0490873852123) : omega : 	0.138840091817 : d : 	(-0.435513796846 0.814789005418 -0.382683432365)
	I94 : dAve : 	(-0.0365732719135 0.120565919754 -0.0490873852123) : omega : 	0.138840091817 : d : 	(-0.268188071917 0.884097590017 -0.382683432365)
	I95 : dAve : 	(-0.0123492826399 0.125384370808 -0.0490873852123) : omega : 	0.138840091817 : d : 	(-0.0905560297858 0.91943080004 -0.382683432365)
	I96 : dAve : 	(0.00274192284156 0.0278392098 -0.0490873852123) : omega : 	0.0575094490319 : d : 	(0.0375095356919 0.38084070704 -0.923879532511)
	I97 : dAve : 	(0.00812039796756 0.0267693645798 -0.0490873852123) : omega : 	0.0575094490319 : d : 	(0.111087136655 0.366205212247 -0.923879532511)
	I98 : dAve : 	(0.0131868107536 0.0246707876912 -0.0490873852123) : omega : 	0.0575094490319 : d : 	(0.180395721254 0.337496656517 -0.923879532511)
	I99 : dAve : 	(0.0177464617977 0.0216241262672 -0.0490873852123) : omega : 	0.0575094490319 : d : 	(0.242771799453 0.295818293547 -0.923879532511)
	I100 : dAve : 	(0.0216241262672 0.0177464617977 -0.0490873852123) : omega : 	0.0575094490319 : d : 	(0.295818293547 0.242771799453 -0.923879532511)
	I101 : dAve : 	(0.0246707876912 0.0131868107536 -0.0490873852123) : omega : 	0.0575094490319 : d : 	(0.337496656517 0.180395721254 -0.923879532511)
	I102 : dAve : 	(0.0267693645798 0.00812039796756 -0.0490873852123) : omega : 	0.0575094490319 : d : 	(0.366205212247 0.111087136655 -0.923879532511)
	I103 : dAve : 	(0.0278392098 0.00274192284156 -0.0490873852123) : omega : 	0.0575094490319 : d : 	(0.38084070704 0.0375095356919 -0.923879532511)
	I104 : dAve : 	(0.0278392098 -0.00274192284156 -0.0490873852123) : omega : 	0.0575094490319 : d : 	(0.38084070704 -0.0375095356919 -0.923879532511)
	I105 : dAve : 	(0.0267693645798 -0.00812039796756 -0.0490873852123) : omega : 	0.0575094490319 : d : 	(0.366205212247 -0.111087136655 -0.923879532511)
	I106 : dAve : 	(0.0246707876912 -0.0131868107536 -0.0490873852123) : omega : 	0.0575094490319 : d : 	(0.337496656517 -0.180395721254 -0.923879532511)
	I107 : dAve : 	(0.0216241262672 -0.0177464617977 -0.0490873852123) : omega : 	0.0575094490319 : d : 	(0.295818293547 -0.242771799453 -0.923879532511)
	I108 : dAve : 	(0.0177464617977 -0.0216241262672 -0.0490873852123) : omega : 	0.0575094490319 : d : 	(0.242771799453 -0.295818293547 -0.923879532511)
	I109 : dAve : 	(0.0131868107536 -0.0246707876912 -0.0490873852123) : omega : 	0.0575094490319 : d : 	(0.180395721254 -0.337496656517 -0.923879532511)
	I110 : dAve : 	(0.00812039796756 -0.0267693645798 -0.0490873852123) : omega : 	0.0575094490319 : d : 	(0.111087136655 -0.366205212247 -0.923879532511)
	I111 : dAve : 	(0.00274192284156 -0.0278392098 -0.0490873852123) : omega : 	0.0575094490319 : d : 	(0.0375095356919 -0.38084070704 -0.923879532511)
	I112 : dAve : 	(-0.00274192284156 -0.0278392098 -0.0490873852123) : omega : 	0.0575094490319 : d : 	(-0.0375095356919 -0.38084070704 -0.923879532511)
	I113 : dAve : 	(-0.00812039796756 -0.0267693645798 -0.0490873852123) : omega : 	0.0575094490319 : d : 	(-0.111087136655 -0.366205212247 -0.923879532511)
	I114 : dAve : 	(-0.0131868107536 -0.0246707876912 -0.0490873852123) : omega : 	0.0575094490319 : d : 	(-0.180395721254 -0.337496656517 -0.923879532511)
	I115 : dAve : 	(-0.0177464617977 -0.0216241262672 -0.0490873852123) : omega : 	0.0575094490319 : d : 	(-0.242771799453 -0.295818293547 -0.923879532511)
	I116 : dAve : 	(-0.0216241262672 -0.0177464617977 -0.0490873852123) : omega : 	0.0575094490319 : d : 	(-0.295818293547 -0.242771799453 -0.923879532511)
	I117 : dAve : 	(-0.0246707876912 -0.0131868107536 -0.0490873852123) : omega : 	0.0575094490319 : d : 	(-0.337496656517 -0.180395721254 -0.923879532511)
	I118 : dAve : 	(-0.0267693645798 -0.00812039796756 -0.0490873852123) : omega : 	0.0575094490319 : d : 	(-0.366205212247 -0.111087136655 -0.923879532511)
	I119 : dAve : 	(-0.0278392098 -0.00274192284156 -0.0490873852123) : omega : 	0.0575094490319 : d : 	(-0.38084070704 -0.0375095356919 -0.923879532511)
	I120 : dAve : 	(-0.0278392098 0.00274192284156 -0.0490873852123) : omega : 	0.0575094490319 : d : 	(-0.38084070704 0.0375095356919 -0.923879532511)
	I121 : dAve : 	(-0.0267693645798 0.00812039796756 -0.0490873852123) : omega : 	0.0575094490319 : d : 	(-0.366205212247 0.111087136655 -0.923879532511)
	I122 : dAve : 	(-0.0246707876912 0.0131868107536 -0.0490873852123) : omega : 	0.0575094490319 : d : 	(-0.337496656517 0.180395721254 -0.923879532511)
	I123 : dAve : 	(-0.0216241262672 0.0177464617977 -0.0490873852123) : omega : 	0.0575094490319 : d : 	(-0.295818293547 0.242771799453 -0.923879532511)
	I124 : dAve : 	(-0.0177464617977 0.0216241262672 -0.0490873852123) : omega : 	0.0575094490319 : d : 	(-0.242771799453 0.295818293547 -0.923879532511)
	I125 : dAve : 	(-0.0131868107536 0.0246707876912 -0.0490873852123) : omega : 	0.0575094490319 : d : 	(-0.180395721254 0.337496656517 -0.923879532511)
	I126 : dAve : 	(-0.00812039796756 0.0267693645798 -0.0490873852123) : omega : 	0.0575094490319 : d : 	(-0.111087136655 0.366205212247 -0.923879532511)
	I127 : dAve : 	(-0.00274192284156 0.0278392098 -0.0490873852123) : omega : 	0.0575094490319 : d : 	(-0.0375095356919 0.38084070704 -0.923879532511)
Total omega : 12.5663706144

Courant Number mean: 0 max: 0

Starting time loop

Sampled set:
    data -> csv

Sampled set:
    data -> csv

Sampled surface:
    yNormal -> ensight
        sampledCuttingPlane: yNormal : plane:(0 1 0) (0 0 0) offsets:(0)

Sampled surface:
    zNormal -> ensight
        sampledCuttingPlane: zNormal : plane:(0 0 1) (0 0 0) offsets:(0)

Sampled surface:
    patchAll -> ensight
        sampledPatch: patchAll : patches:(".*WW.*")

deltaT = 1
Time = 1

PIMPLE: iteration 1
Radiation solver iter: 0
DILUPBiCGStab:  Solving for ILambda_0_0, Initial residual = 1, Final residual = 2.02403927119e-62, No Iterations 2
DILUPBiCGStab:  Solving for ILambda_1_0, Initial residual = 1, Final residual = 2.50570961554e-62, No Iterations 2
DILUPBiCGStab:  Solving for ILambda_2_0, Initial residual = 1, Final residual = 2.12894352524e-62, No Iterations 2
DILUPBiCGStab:  Solving for ILambda_3_0, Initial residual = 1, Final residual = 2.5732211882e-62, No Iterations 2
DILUPBiCGStab:  Solving for ILambda_4_0, Initial residual = 1, Final residual = 3.43808328708e-62, No Iterations 2
DILUPBiCGStab:  Solving for ILambda_5_0, Initial residual = 1, Final residual = 4.47006178109e-62, No Iterations 2
DILUPBiCGStab:  Solving for ILambda_6_0, Initial residual = 1, Final residual = 6.72353519149e-62, No Iterations 2
DILUPBiCGStab:  Solving for ILambda_7_0, Initial residual = 1, Final residual = 3.96181516426e-62, No Iterations 2
DILUPBiCGStab:  Solving for ILambda_8_0, Initial residual = 1, Final residual = 5.00914027725e-61, No Iterations 40
DILUPBiCGStab:  Solving for ILambda_9_0, Initial residual = 1, Final residual = 8.17445389508e-61, No Iterations 60
DILUPBiCGStab:  Solving for ILambda_10_0, Initial residual = 1, Final residual = 1.08220388627e-61, No Iterations 69
DILUPBiCGStab:  Solving for ILambda_11_0, Initial residual = 1, Final residual = 4.79025500952e-61, No Iterations 69
DILUPBiCGStab:  Solving for ILambda_12_0, Initial residual = 1, Final residual = 9.22801517892e-61, No Iterations 69
DILUPBiCGStab:  Solving for ILambda_13_0, Initial residual = 1, Final residual = 8.04536984918e-61, No Iterations 67
DILUPBiCGStab:  Solving for ILambda_14_0, Initial residual = 1, Final residual = 8.20820234581e-61, No Iterations 58
DILUPBiCGStab:  Solving for ILambda_15_0, Initial residual = 1, Final residual = 1.5128488203e-61, No Iterations 41
DILUPBiCGStab:  Solving for ILambda_16_0, Initial residual = 1, Final residual = 3.26234386854e-62, No Iterations 29
DILUPBiCGStab:  Solving for ILambda_17_0, Initial residual = 1, Final residual = 5.72521040513e-61, No Iterations 29
DILUPBiCGStab:  Solving for ILambda_18_0, Initial residual = 1, Final residual = 2.71047241325e-62, No Iterations 30
DILUPBiCGStab:  Solving for ILambda_19_0, Initial residual = 1, Final residual = 1.38250453078e-61, No Iterations 30
DILUPBiCGStab:  Solving for ILambda_20_0, Initial residual = 1, Final residual = 1.36896706507e-61, No Iterations 30
DILUPBiCGStab:  Solving for ILambda_21_0, Initial residual = 1, Final residual = 5.54155353004e-62, No Iterations 30
DILUPBiCGStab:  Solving for ILambda_22_0, Initial residual = 1, Final residual = 2.54048216705e-61, No Iterations 29
DILUPBiCGStab:  Solving for ILambda_23_0, Initial residual = 1, Final residual = 4.65644970802e-62, No Iterations 29
DILUPBiCGStab:  Solving for ILambda_24_0, Initial residual = 1, Final residual = 9.02471577917e-61, No Iterations 41
DILUPBiCGStab:  Solving for ILambda_25_0, Initial residual = 1, Final residual = 2.22766053151e-61, No Iterations 58
DILUPBiCGStab:  Solving for ILambda_26_0, Initial residual = 1, Final residual = 6.47411107248e-61, No Iterations 68
DILUPBiCGStab:  Solving for ILambda_27_0, Initial residual = 1, Final residual = 5.47609934106e-61, No Iterations 69
DILUPBiCGStab:  Solving for ILambda_28_0, Initial residual = 1, Final residual = 8.33641989305e-61, No Iterations 69
DILUPBiCGStab:  Solving for ILambda_29_0, Initial residual = 1, Final residual = 7.58624716351e-61, No Iterations 68
DILUPBiCGStab:  Solving for ILambda_30_0, Initial residual = 1, Final residual = 3.28643975886e-61, No Iterations 60
DILUPBiCGStab:  Solving for ILambda_31_0, Initial residual = 1, Final residual = 7.70630039439e-61, No Iterations 40
DILUPBiCGStab:  Solving for ILambda_32_0, Initial residual = 1, Final residual = 4.21350872205e-62, No Iterations 2
DILUPBiCGStab:  Solving for ILambda_33_0, Initial residual = 1, Final residual = 4.52356435557e-62, No Iterations 2
DILUPBiCGStab:  Solving for ILambda_34_0, Initial residual = 1, Final residual = 1.19849301653e-61, No Iterations 2
DILUPBiCGStab:  Solving for ILambda_35_0, Initial residual = 1, Final residual = 6.92788678713e-62, No Iterations 2
DILUPBiCGStab:  Solving for ILambda_36_0, Initial residual = 1, Final residual = 9.57131106438e-62, No Iterations 2
DILUPBiCGStab:  Solving for ILambda_37_0, Initial residual = 1, Final residual = 4.38783001436e-62, No Iterations 2
DILUPBiCGStab:  Solving for ILambda_38_0, Initial residual = 1, Final residual = 3.85696000678e-62, No Iterations 2
DILUPBiCGStab:  Solving for ILambda_39_0, Initial residual = 1, Final residual = 3.29196392455e-62, No Iterations 2
DILUPBiCGStab:  Solving for ILambda_40_0, Initial residual = 1, Final residual = 2.00572713076e-61, No Iterations 45
DILUPBiCGStab:  Solving for ILambda_41_0, Initial residual = 1, Final residual = 2.28610049933e-61, No Iterations 67
DILUPBiCGStab:  Solving for ILambda_42_0, Initial residual = 1, Final residual = 1.70423152104e-61, No Iterations 77
DILUPBiCGStab:  Solving for ILambda_43_0, Initial residual = 1, Final residual = 7.49087430828e-61, No Iterations 79
DILUPBiCGStab:  Solving for ILambda_44_0, Initial residual = 1, Final residual = 1.69947994703e-61, No Iterations 79
DILUPBiCGStab:  Solving for ILambda_45_0, Initial residual = 1, Final residual = 3.4630674109e-61, No Iterations 78
DILUPBiCGStab:  Solving for ILambda_46_0, Initial residual = 1, Final residual = 1.06998856797e-61, No Iterations 65
DILUPBiCGStab:  Solving for ILambda_47_0, Initial residual = 1, Final residual = 1.68566263752e-61, No Iterations 46
DILUPBiCGStab:  Solving for ILambda_48_0, Initial residual = 1, Final residual = 1.20151639028e-61, No Iterations 33
DILUPBiCGStab:  Solving for ILambda_49_0, Initial residual = 1, Final residual = 1.08073257146e-61, No Iterations 33
DILUPBiCGStab:  Solving for ILambda_50_0, Initial residual = 1, Final residual = 1.38954414183e-62, No Iterations 33
DILUPBiCGStab:  Solving for ILambda_51_0, Initial residual = 1, Final residual = 2.6740846913e-61, No Iterations 34
DILUPBiCGStab:  Solving for ILambda_52_0, Initial residual = 1, Final residual = 2.43060012035e-61, No Iterations 35
DILUPBiCGStab:  Solving for ILambda_53_0, Initial residual = 1, Final residual = 3.27057157015e-61, No Iterations 35
DILUPBiCGStab:  Solving for ILambda_54_0, Initial residual = 1, Final residual = 2.69539911128e-61, No Iterations 33
DILUPBiCGStab:  Solving for ILambda_55_0, Initial residual = 1, Final residual = 4.51642099251e-62, No Iterations 33
DILUPBiCGStab:  Solving for ILambda_56_0, Initial residual = 1, Final residual = 3.82721806806e-61, No Iterations 46
DILUPBiCGStab:  Solving for ILambda_57_0, Initial residual = 1, Final residual = 8.08184363605e-61, No Iterations 65
DILUPBiCGStab:  Solving for ILambda_58_0, Initial residual = 1, Final residual = 1.97088368791e-61, No Iterations 78
DILUPBiCGStab:  Solving for ILambda_59_0, Initial residual = 1, Final residual = 7.10420586905e-61, No Iterations 78
DILUPBiCGStab:  Solving for ILambda_60_0, Initial residual = 1, Final residual = 2.8427777359e-61, No Iterations 79
DILUPBiCGStab:  Solving for ILambda_61_0, Initial residual = 1, Final residual = 5.38558979151e-61, No Iterations 76
DILUPBiCGStab:  Solving for ILambda_62_0, Initial residual = 1, Final residual = 5.58005852485e-61, No Iterations 66
DILUPBiCGStab:  Solving for ILambda_63_0, Initial residual = 1, Final residual = 1.30600186163e-61, No Iterations 45
DILUPBiCGStab:  Solving for ILambda_64_0, Initial residual = 1, Final residual = 4.31602581526e-61, No Iterations 30
DILUPBiCGStab:  Solving for ILambda_65_0, Initial residual = 1, Final residual = 1.40393798848e-61, No Iterations 32
DILUPBiCGStab:  Solving for ILambda_66_0, Initial residual = 1, Final residual = 8.34076445333e-62, No Iterations 31
DILUPBiCGStab:  Solving for ILambda_67_0, Initial residual = 1, Final residual = 1.33379926177e-61, No Iterations 31
DILUPBiCGStab:  Solving for ILambda_68_0, Initial residual = 1, Final residual = 1.86205942995e-62, No Iterations 33
DILUPBiCGStab:  Solving for ILambda_69_0, Initial residual = 1, Final residual = 1.17119414851e-61, No Iterations 30
DILUPBiCGStab:  Solving for ILambda_70_0, Initial residual = 1, Final residual = 6.74071814399e-62, No Iterations 31
DILUPBiCGStab:  Solving for ILambda_71_0, Initial residual = 1, Final residual = 8.77552920122e-61, No Iterations 30
DILUPBiCGStab:  Solving for ILambda_72_0, Initial residual = 1, Final residual = 1.38004702464e-61, No Iterations 47
DILUPBiCGStab:  Solving for ILambda_73_0, Initial residual = 1, Final residual = 6.3340428475e-61, No Iterations 65
DILUPBiCGStab:  Solving for ILambda_74_0, Initial residual = 1, Final residual = 3.0674797707e-61, No Iterations 78
DILUPBiCGStab:  Solving for ILambda_75_0, Initial residual = 1, Final residual = 4.48414091481e-61, No Iterations 79
DILUPBiCGStab:  Solving for ILambda_76_0, Initial residual = 1, Final residual = 4.27322666044e-61, No Iterations 80
DILUPBiCGStab:  Solving for ILambda_77_0, Initial residual = 1, Final residual = 4.23702520756e-61, No Iterations 77
DILUPBiCGStab:  Solving for ILambda_78_0, Initial residual = 1, Final residual = 3.63799725766e-61, No Iterations 66
DILUPBiCGStab:  Solving for ILambda_79_0, Initial residual = 1, Final residual = 8.84944004955e-62, No Iterations 46
DILUPBiCGStab:  Solving for ILambda_80_0, Initial residual = 1, Final residual = 5.26727593293e-62, No Iterations 2
DILUPBiCGStab:  Solving for ILambda_81_0, Initial residual = 1, Final residual = 5.18932961146e-62, No Iterations 2
DILUPBiCGStab:  Solving for ILambda_82_0, Initial residual = 1, Final residual = 1.1087200075e-61, No Iterations 2
DILUPBiCGStab:  Solving for ILambda_83_0, Initial residual = 1, Final residual = 4.46123762948e-62, No Iterations 2
DILUPBiCGStab:  Solving for ILambda_84_0, Initial residual = 1, Final residual = 6.66648000456e-62, No Iterations 2
DILUPBiCGStab:  Solving for ILambda_85_0, Initial residual = 1, Final residual = 5.37016542795e-62, No Iterations 2
DILUPBiCGStab:  Solving for ILambda_86_0, Initial residual = 1, Final residual = 4.84023235323e-62, No Iterations 2
DILUPBiCGStab:  Solving for ILambda_87_0, Initial residual = 1, Final residual = 4.88676161653e-62, No Iterations 2
DILUPBiCGStab:  Solving for ILambda_88_0, Initial residual = 1, Final residual = 4.60479143389e-62, No Iterations 46
DILUPBiCGStab:  Solving for ILambda_89_0, Initial residual = 1, Final residual = 3.02498698957e-61, No Iterations 67
DILUPBiCGStab:  Solving for ILambda_90_0, Initial residual = 1, Final residual = 3.01301245129e-61, No Iterations 78
DILUPBiCGStab:  Solving for ILambda_91_0, Initial residual = 1, Final residual = 5.16713915276e-61, No Iterations 81
DILUPBiCGStab:  Solving for ILambda_92_0, Initial residual = 1, Final residual = 1.82729899722e-61, No Iterations 80
DILUPBiCGStab:  Solving for ILambda_93_0, Initial residual = 1, Final residual = 2.59158147756e-61, No Iterations 78
DILUPBiCGStab:  Solving for ILambda_94_0, Initial residual = 1, Final residual = 3.79068714439e-61, No Iterations 66
DILUPBiCGStab:  Solving for ILambda_95_0, Initial residual = 1, Final residual = 9.69348073368e-61, No Iterations 46
DILUPBiCGStab:  Solving for ILambda_96_0, Initial residual = 1, Final residual = 2.24709616405e-61, No Iterations 27
DILUPBiCGStab:  Solving for ILambda_97_0, Initial residual = 1, Final residual = 4.43237032309e-61, No Iterations 27
DILUPBiCGStab:  Solving for ILambda_98_0, Initial residual = 1, Final residual = 6.79770539474e-62, No Iterations 27
DILUPBiCGStab:  Solving for ILambda_99_0, Initial residual = 1, Final residual = 5.64744812588e-61, No Iterations 27
DILUPBiCGStab:  Solving for ILambda_100_0, Initial residual = 1, Final residual = 2.37807166694e-61, No Iterations 27
DILUPBiCGStab:  Solving for ILambda_101_0, Initial residual = 1, Final residual = 4.00701587908e-61, No Iterations 26
DILUPBiCGStab:  Solving for ILambda_102_0, Initial residual = 1, Final residual = 8.87835007034e-62, No Iterations 26
DILUPBiCGStab:  Solving for ILambda_103_0, Initial residual = 1, Final residual = 3.75375138355e-62, No Iterations 27
DILUPBiCGStab:  Solving for ILambda_104_0, Initial residual = 1, Final residual = 4.39875282428e-62, No Iterations 43
DILUPBiCGStab:  Solving for ILambda_105_0, Initial residual = 1, Final residual = 2.70240058904e-61, No Iterations 59
DILUPBiCGStab:  Solving for ILambda_106_0, Initial residual = 1, Final residual = 1.41840594105e-61, No Iterations 69
DILUPBiCGStab:  Solving for ILambda_107_0, Initial residual = 1, Final residual = 4.40075695056e-61, No Iterations 70
DILUPBiCGStab:  Solving for ILambda_108_0, Initial residual = 1, Final residual = 1.49143438582e-61, No Iterations 70
DILUPBiCGStab:  Solving for ILambda_109_0, Initial residual = 1, Final residual = 2.88930468135e-62, No Iterations 69
DILUPBiCGStab:  Solving for ILambda_110_0, Initial residual = 1, Final residual = 4.24582048256e-61, No Iterations 60
DILUPBiCGStab:  Solving for ILambda_111_0, Initial residual = 1, Final residual = 1.22926434851e-61, No Iterations 41
DILUPBiCGStab:  Solving for ILambda_112_0, Initial residual = 1, Final residual = 1.93362246501e-62, No Iterations 2
DILUPBiCGStab:  Solving for ILambda_113_0, Initial residual = 1, Final residual = 2.41633466922e-62, No Iterations 2
DILUPBiCGStab:  Solving for ILambda_114_0, Initial residual = 1, Final residual = 6.8535742251e-62, No Iterations 2
DILUPBiCGStab:  Solving for ILambda_115_0, Initial residual = 1, Final residual = 2.39962724105e-62, No Iterations 2
DILUPBiCGStab:  Solving for ILambda_116_0, Initial residual = 1, Final residual = 1.53847774563e-62, No Iterations 2
DILUPBiCGStab:  Solving for ILambda_117_0, Initial residual = 1, Final residual = 1.78024160505e-62, No Iterations 2
DILUPBiCGStab:  Solving for ILambda_118_0, Initial residual = 1, Final residual = 1.63735419056e-62, No Iterations 2
DILUPBiCGStab:  Solving for ILambda_119_0, Initial residual = 1, Final residual = 2.87221066135e-62, No Iterations 2
DILUPBiCGStab:  Solving for ILambda_120_0, Initial residual = 1, Final residual = 1.81192938656e-61, No Iterations 41
DILUPBiCGStab:  Solving for ILambda_121_0, Initial residual = 1, Final residual = 6.11693713097e-61, No Iterations 60
DILUPBiCGStab:  Solving for ILambda_122_0, Initial residual = 1, Final residual = 8.94712772763e-62, No Iterations 69
DILUPBiCGStab:  Solving for ILambda_123_0, Initial residual = 1, Final residual = 8.62014989695e-61, No Iterations 70
DILUPBiCGStab:  Solving for ILambda_124_0, Initial residual = 1, Final residual = 3.62053095271e-61, No Iterations 70
DILUPBiCGStab:  Solving for ILambda_125_0, Initial residual = 1, Final residual = 5.99563237959e-62, No Iterations 69
DILUPBiCGStab:  Solving for ILambda_126_0, Initial residual = 1, Final residual = 8.12588380639e-61, No Iterations 59
DILUPBiCGStab:  Solving for ILambda_127_0, Initial residual = 1, Final residual = 1.35754782308e-61, No Iterations 42
Radiation solver iter: 1
DILUPBiCGStab:  Solving for ILambda_0_0, Initial residual = 2.51819307185e-16, Final residual = 1.99583060412e-63, No Iterations 2
DILUPBiCGStab:  Solving for ILambda_1_0, Initial residual = 2.58278417602e-16, Final residual = 1.93429537641e-63, No Iterations 2
DILUPBiCGStab:  Solving for ILambda_2_0, Initial residual = 2.49467078783e-16, Final residual = 1.60821837815e-63, No Iterations 2
DILUPBiCGStab:  Solving for ILambda_3_0, Initial residual = 2.59999419394e-16, Final residual = 1.55701256712e-63, No Iterations 2
DILUPBiCGStab:  Solving for ILambda_4_0, Initial residual = 2.59308707239e-16, Final residual = 1.498604068e-63, No Iterations 2
DILUPBiCGStab:  Solving for ILambda_5_0, Initial residual = 2.77907967565e-16, Final residual = 1.88420148408e-63, No Iterations 2
DILUPBiCGStab:  Solving for ILambda_6_0, Initial residual = 2.79523255046e-16, Final residual = 2.63525794415e-63, No Iterations 2
DILUPBiCGStab:  Solving for ILambda_7_0, Initial residual = 2.65635929706e-16, Final residual = 1.76959241073e-63, No Iterations 2
DILUPBiCGStab:  Solving for ILambda_8_0, Initial residual = 5.95001952815e-16, Final residual = 1.5325066649e-61, No Iterations 32
DILUPBiCGStab:  Solving for ILambda_9_0, Initial residual = 7.89328650869e-16, Final residual = 2.03731593253e-62, No Iterations 47
DILUPBiCGStab:  Solving for ILambda_10_0, Initial residual = 8.93191771832e-16, Final residual = 3.01259051325e-61, No Iterations 53
DILUPBiCGStab:  Solving for ILambda_11_0, Initial residual = 9.73835135263e-16, Final residual = 2.42361642248e-62, No Iterations 59
DILUPBiCGStab:  Solving for ILambda_12_0, Initial residual = 9.66056125585e-16, Final residual = 4.66386759542e-61, No Iterations 59
DILUPBiCGStab:  Solving for ILambda_13_0, Initial residual = 9.56981350781e-16, Final residual = 5.59939814621e-62, No Iterations 53
DILUPBiCGStab:  Solving for ILambda_14_0, Initial residual = 8.13515133484e-16, Final residual = 1.48673599021e-63, No Iterations 47
DILUPBiCGStab:  Solving for ILambda_15_0, Initial residual = 6.85494422885e-16, Final residual = 4.07793300346e-61, No Iterations 34
DILUPBiCGStab:  Solving for ILambda_16_0, Initial residual = 6.32896284384e-16, Final residual = 3.81567430504e-61, No Iterations 19
DILUPBiCGStab:  Solving for ILambda_17_0, Initial residual = 7.00069401123e-16, Final residual = 6.10887094518e-62, No Iterations 20
DILUPBiCGStab:  Solving for ILambda_18_0, Initial residual = 7.12303028317e-16, Final residual = 2.50601468572e-62, No Iterations 21
DILUPBiCGStab:  Solving for ILambda_19_0, Initial residual = 7.46503477509e-16, Final residual = 1.3625649021e-62, No Iterations 20
DILUPBiCGStab:  Solving for ILambda_20_0, Initial residual = 7.40660637336e-16, Final residual = 1.00298157364e-61, No Iterations 21
DILUPBiCGStab:  Solving for ILambda_21_0, Initial residual = 6.95011770142e-16, Final residual = 9.52048892148e-61, No Iterations 20
DILUPBiCGStab:  Solving for ILambda_22_0, Initial residual = 6.70800813474e-16, Final residual = 2.07942170125e-61, No Iterations 19
DILUPBiCGStab:  Solving for ILambda_23_0, Initial residual = 6.28404615872e-16, Final residual = 9.56588945384e-62, No Iterations 20
DILUPBiCGStab:  Solving for ILambda_24_0, Initial residual = 6.94790143998e-16, Final residual = 1.32779519481e-62, No Iterations 34
DILUPBiCGStab:  Solving for ILambda_25_0, Initial residual = 8.22701741112e-16, Final residual = 3.24006322515e-61, No Iterations 46
DILUPBiCGStab:  Solving for ILambda_26_0, Initial residual = 9.0733029613e-16, Final residual = 9.36430756545e-61, No Iterations 53
DILUPBiCGStab:  Solving for ILambda_27_0, Initial residual = 9.66352873474e-16, Final residual = 4.91854766583e-61, No Iterations 58
DILUPBiCGStab:  Solving for ILambda_28_0, Initial residual = 9.5746505324e-16, Final residual = 8.61428378312e-62, No Iterations 59
DILUPBiCGStab:  Solving for ILambda_29_0, Initial residual = 8.86210888207e-16, Final residual = 5.17378667328e-61, No Iterations 54
DILUPBiCGStab:  Solving for ILambda_30_0, Initial residual = 7.99053007823e-16, Final residual = 2.95894010043e-61, No Iterations 46
DILUPBiCGStab:  Solving for ILambda_31_0, Initial residual = 5.88337192371e-16, Final residual = 6.88785378051e-61, No Iterations 32
DILUPBiCGStab:  Solving for ILambda_32_0, Initial residual = 8.73798464462e-16, Final residual = 9.68916685178e-63, No Iterations 2
DILUPBiCGStab:  Solving for ILambda_33_0, Initial residual = 1.00829290193e-15, Final residual = 1.20299082833e-62, No Iterations 2
DILUPBiCGStab:  Solving for ILambda_34_0, Initial residual = 9.94524887594e-16, Final residual = 1.447268499e-62, No Iterations 2
DILUPBiCGStab:  Solving for ILambda_35_0, Initial residual = 9.72445213018e-16, Final residual = 1.21544691872e-62, No Iterations 2
DILUPBiCGStab:  Solving for ILambda_36_0, Initial residual = 1.02398892775e-15, Final residual = 1.84193345963e-62, No Iterations 2
DILUPBiCGStab:  Solving for ILambda_37_0, Initial residual = 1.09658984552e-15, Final residual = 1.29118695311e-62, No Iterations 2
DILUPBiCGStab:  Solving for ILambda_38_0, Initial residual = 1.08103114632e-15, Final residual = 1.18029843764e-62, No Iterations 2
DILUPBiCGStab:  Solving for ILambda_39_0, Initial residual = 9.41501852344e-16, Final residual = 1.00069157153e-62, No Iterations 2
DILUPBiCGStab:  Solving for ILambda_40_0, Initial residual = 2.00157913052e-15, Final residual = 1.78830974237e-63, No Iterations 37
DILUPBiCGStab:  Solving for ILambda_41_0, Initial residual = 2.80468701299e-15, Final residual = 3.85947648862e-61, No Iterations 53
DILUPBiCGStab:  Solving for ILambda_42_0, Initial residual = 3.31035357457e-15, Final residual = 8.10177213993e-61, No Iterations 61
DILUPBiCGStab:  Solving for ILambda_43_0, Initial residual = 3.67371983552e-15, Final residual = 3.88558457757e-61, No Iterations 66
DILUPBiCGStab:  Solving for ILambda_44_0, Initial residual = 3.75130802137e-15, Final residual = 6.41405171736e-61, No Iterations 66
DILUPBiCGStab:  Solving for ILambda_45_0, Initial residual = 3.65347027622e-15, Final residual = 1.86957228549e-61, No Iterations 61
DILUPBiCGStab:  Solving for ILambda_46_0, Initial residual = 3.17106630177e-15, Final residual = 5.682564253e-61, No Iterations 50
DILUPBiCGStab:  Solving for ILambda_47_0, Initial residual = 2.52767200844e-15, Final residual = 6.16382373951e-63, No Iterations 38
DILUPBiCGStab:  Solving for ILambda_48_0, Initial residual = 4.44225811851e-15, Final residual = 2.52144293687e-61, No Iterations 25
DILUPBiCGStab:  Solving for ILambda_49_0, Initial residual = 2.23824458013e-15, Final residual = 5.70108032194e-61, No Iterations 23
DILUPBiCGStab:  Solving for ILambda_50_0, Initial residual = 2.70514424217e-15, Final residual = 8.80217682121e-62, No Iterations 23
DILUPBiCGStab:  Solving for ILambda_51_0, Initial residual = 2.60987491289e-15, Final residual = 1.18917854141e-61, No Iterations 23
DILUPBiCGStab:  Solving for ILambda_52_0, Initial residual = 2.59322847803e-15, Final residual = 2.75214607083e-61, No Iterations 23
DILUPBiCGStab:  Solving for ILambda_53_0, Initial residual = 2.65815406092e-15, Final residual = 3.47153521934e-62, No Iterations 24
DILUPBiCGStab:  Solving for ILambda_54_0, Initial residual = 2.17639592953e-15, Final residual = 4.97769204403e-62, No Iterations 22
DILUPBiCGStab:  Solving for ILambda_55_0, Initial residual = 4.23974213048e-15, Final residual = 2.19750148795e-61, No Iterations 22
DILUPBiCGStab:  Solving for ILambda_56_0, Initial residual = 2.58329473196e-15, Final residual = 4.15970551735e-61, No Iterations 37
DILUPBiCGStab:  Solving for ILambda_57_0, Initial residual = 3.19431801154e-15, Final residual = 1.16144106481e-61, No Iterations 53
DILUPBiCGStab:  Solving for ILambda_58_0, Initial residual = 3.61807263795e-15, Final residual = 6.4071549427e-61, No Iterations 59
DILUPBiCGStab:  Solving for ILambda_59_0, Initial residual = 3.76491287535e-15, Final residual = 5.51181655113e-61, No Iterations 66
DILUPBiCGStab:  Solving for ILambda_60_0, Initial residual = 3.68222728819e-15, Final residual = 5.07386858373e-62, No Iterations 68
DILUPBiCGStab:  Solving for ILambda_61_0, Initial residual = 3.29753868862e-15, Final residual = 2.80311626584e-61, No Iterations 61
DILUPBiCGStab:  Solving for ILambda_62_0, Initial residual = 2.76098859184e-15, Final residual = 7.56237661564e-61, No Iterations 52
DILUPBiCGStab:  Solving for ILambda_63_0, Initial residual = 1.98508089964e-15, Final residual = 3.33298293981e-61, No Iterations 35
DILUPBiCGStab:  Solving for ILambda_64_0, Initial residual = 1.9385774801e-15, Final residual = 4.45531525906e-61, No Iterations 23
DILUPBiCGStab:  Solving for ILambda_65_0, Initial residual = 2.04700977074e-15, Final residual = 7.35095748076e-61, No Iterations 23
DILUPBiCGStab:  Solving for ILambda_66_0, Initial residual = 2.14561436954e-15, Final residual = 4.5708932254e-61, No Iterations 23
DILUPBiCGStab:  Solving for ILambda_67_0, Initial residual = 2.23167601632e-15, Final residual = 3.04762690807e-61, No Iterations 26
DILUPBiCGStab:  Solving for ILambda_68_0, Initial residual = 2.27628677577e-15, Final residual = 3.39756525494e-61, No Iterations 24
DILUPBiCGStab:  Solving for ILambda_69_0, Initial residual = 2.20513526579e-15, Final residual = 1.97704587699e-61, No Iterations 25
DILUPBiCGStab:  Solving for ILambda_70_0, Initial residual = 2.10759256895e-15, Final residual = 4.44918025193e-61, No Iterations 25
DILUPBiCGStab:  Solving for ILambda_71_0, Initial residual = 2.0457058476e-15, Final residual = 1.06092611625e-61, No Iterations 23
DILUPBiCGStab:  Solving for ILambda_72_0, Initial residual = 2.5499937042e-15, Final residual = 6.88179597882e-61, No Iterations 39
DILUPBiCGStab:  Solving for ILambda_73_0, Initial residual = 3.04893669962e-15, Final residual = 5.25678863673e-61, No Iterations 53
DILUPBiCGStab:  Solving for ILambda_74_0, Initial residual = 3.54894295666e-15, Final residual = 4.00187606872e-61, No Iterations 62
DILUPBiCGStab:  Solving for ILambda_75_0, Initial residual = 3.85448654869e-15, Final residual = 3.71834099857e-61, No Iterations 66
DILUPBiCGStab:  Solving for ILambda_76_0, Initial residual = 4.04646373769e-15, Final residual = 4.30772251228e-61, No Iterations 66
DILUPBiCGStab:  Solving for ILambda_77_0, Initial residual = 3.37056790232e-15, Final residual = 7.55164026588e-61, No Iterations 61
DILUPBiCGStab:  Solving for ILambda_78_0, Initial residual = 2.82111590073e-15, Final residual = 1.72013488921e-61, No Iterations 53
DILUPBiCGStab:  Solving for ILambda_79_0, Initial residual = 2.08348970602e-15, Final residual = 2.39905100799e-61, No Iterations 36
DILUPBiCGStab:  Solving for ILambda_80_0, Initial residual = 8.39193513565e-16, Final residual = 9.99417525906e-63, No Iterations 2
DILUPBiCGStab:  Solving for ILambda_81_0, Initial residual = 9.73724662109e-16, Final residual = 9.48376452517e-63, No Iterations 2
DILUPBiCGStab:  Solving for ILambda_82_0, Initial residual = 1.03317077653e-15, Final residual = 1.34232109449e-62, No Iterations 2
DILUPBiCGStab:  Solving for ILambda_83_0, Initial residual = 9.68114665355e-16, Final residual = 9.14816850707e-63, No Iterations 2
DILUPBiCGStab:  Solving for ILambda_84_0, Initial residual = 9.62075013008e-16, Final residual = 9.97403239931e-63, No Iterations 2
DILUPBiCGStab:  Solving for ILambda_85_0, Initial residual = 8.97462154118e-16, Final residual = 1.26332003586e-62, No Iterations 2
DILUPBiCGStab:  Solving for ILambda_86_0, Initial residual = 8.81846348804e-16, Final residual = 1.83024008782e-62, No Iterations 2
DILUPBiCGStab:  Solving for ILambda_87_0, Initial residual = 7.84432820571e-16, Final residual = 1.42406763465e-62, No Iterations 2
DILUPBiCGStab:  Solving for ILambda_88_0, Initial residual = 2.12744918374e-15, Final residual = 5.56735020958e-61, No Iterations 35
DILUPBiCGStab:  Solving for ILambda_89_0, Initial residual = 2.81818989176e-15, Final residual = 7.04025407502e-61, No Iterations 52
DILUPBiCGStab:  Solving for ILambda_90_0, Initial residual = 3.36069398171e-15, Final residual = 3.39711531569e-61, No Iterations 63
DILUPBiCGStab:  Solving for ILambda_91_0, Initial residual = 4.02764862981e-15, Final residual = 6.4063499698e-61, No Iterations 66
DILUPBiCGStab:  Solving for ILambda_92_0, Initial residual = 3.82492189299e-15, Final residual = 6.38548430848e-61, No Iterations 66
DILUPBiCGStab:  Solving for ILambda_93_0, Initial residual = 3.54828351691e-15, Final residual = 3.17318863475e-61, No Iterations 62
DILUPBiCGStab:  Solving for ILambda_94_0, Initial residual = 2.98700782852e-15, Final residual = 8.92420380411e-61, No Iterations 52
DILUPBiCGStab:  Solving for ILambda_95_0, Initial residual = 2.5444530506e-15, Final residual = 4.47058550718e-62, No Iterations 40
DILUPBiCGStab:  Solving for ILambda_96_0, Initial residual = 6.97365018298e-16, Final residual = 7.30707999903e-61, No Iterations 19
DILUPBiCGStab:  Solving for ILambda_97_0, Initial residual = 7.02822052223e-16, Final residual = 3.63245144789e-61, No Iterations 20
DILUPBiCGStab:  Solving for ILambda_98_0, Initial residual = 7.21959061874e-16, Final residual = 3.21556156008e-61, No Iterations 23
DILUPBiCGStab:  Solving for ILambda_99_0, Initial residual = 7.64892328967e-16, Final residual = 2.68439809254e-61, No Iterations 21
DILUPBiCGStab:  Solving for ILambda_100_0, Initial residual = 7.40015134197e-16, Final residual = 9.72564315444e-61, No Iterations 22
DILUPBiCGStab:  Solving for ILambda_101_0, Initial residual = 7.52159363114e-16, Final residual = 4.8508342628e-61, No Iterations 20
DILUPBiCGStab:  Solving for ILambda_102_0, Initial residual = 7.07972140736e-16, Final residual = 1.96144094065e-61, No Iterations 19
DILUPBiCGStab:  Solving for ILambda_103_0, Initial residual = 7.21259851784e-16, Final residual = 2.33235991568e-61, No Iterations 19
DILUPBiCGStab:  Solving for ILambda_104_0, Initial residual = 8.39983481601e-16, Final residual = 4.01923416796e-61, No Iterations 34
DILUPBiCGStab:  Solving for ILambda_105_0, Initial residual = 9.70989006882e-16, Final residual = 4.8100311957e-61, No Iterations 46
DILUPBiCGStab:  Solving for ILambda_106_0, Initial residual = 1.01898534363e-15, Final residual = 2.37878383799e-61, No Iterations 54
DILUPBiCGStab:  Solving for ILambda_107_0, Initial residual = 1.04377042079e-15, Final residual = 7.47907401815e-61, No Iterations 59
DILUPBiCGStab:  Solving for ILambda_108_0, Initial residual = 1.00926846486e-15, Final residual = 6.32884426003e-62, No Iterations 61
DILUPBiCGStab:  Solving for ILambda_109_0, Initial residual = 9.6381437034e-16, Final residual = 1.57801357903e-61, No Iterations 55
DILUPBiCGStab:  Solving for ILambda_110_0, Initial residual = 8.01077555853e-16, Final residual = 2.33922129546e-62, No Iterations 46
DILUPBiCGStab:  Solving for ILambda_111_0, Initial residual = 6.32303808358e-16, Final residual = 1.35613299584e-64, No Iterations 33
DILUPBiCGStab:  Solving for ILambda_112_0, Initial residual = 2.86599655461e-16, Final residual = 3.23778494812e-63, No Iterations 2
DILUPBiCGStab:  Solving for ILambda_113_0, Initial residual = 2.95533364544e-16, Final residual = 2.39879399657e-63, No Iterations 2
DILUPBiCGStab:  Solving for ILambda_114_0, Initial residual = 3.09990391445e-16, Final residual = 2.54631948534e-63, No Iterations 2
DILUPBiCGStab:  Solving for ILambda_115_0, Initial residual = 2.99699392187e-16, Final residual = 1.6088788538e-63, No Iterations 2
DILUPBiCGStab:  Solving for ILambda_116_0, Initial residual = 2.7645414085e-16, Final residual = 1.47065534795e-63, No Iterations 2
DILUPBiCGStab:  Solving for ILambda_117_0, Initial residual = 2.62687146269e-16, Final residual = 1.4439733935e-63, No Iterations 2
DILUPBiCGStab:  Solving for ILambda_118_0, Initial residual = 2.68912053599e-16, Final residual = 1.5695818953e-63, No Iterations 2
DILUPBiCGStab:  Solving for ILambda_119_0, Initial residual = 2.5879237271e-16, Final residual = 1.62923964087e-63, No Iterations 2
DILUPBiCGStab:  Solving for ILambda_120_0, Initial residual = 6.32198773882e-16, Final residual = 5.23496915508e-61, No Iterations 32
DILUPBiCGStab:  Solving for ILambda_121_0, Initial residual = 7.98235846397e-16, Final residual = 6.72502660062e-61, No Iterations 45
DILUPBiCGStab:  Solving for ILambda_122_0, Initial residual = 9.59734341798e-16, Final residual = 9.33825312857e-63, No Iterations 55
DILUPBiCGStab:  Solving for ILambda_123_0, Initial residual = 1.01628945874e-15, Final residual = 7.75813848003e-61, No Iterations 58
DILUPBiCGStab:  Solving for ILambda_124_0, Initial residual = 1.04843068833e-15, Final residual = 4.41676045417e-61, No Iterations 59
DILUPBiCGStab:  Solving for ILambda_125_0, Initial residual = 1.02899999005e-15, Final residual = 6.6156496408e-61, No Iterations 54
DILUPBiCGStab:  Solving for ILambda_126_0, Initial residual = 9.80440750082e-16, Final residual = 3.33288753073e-61, No Iterations 46
DILUPBiCGStab:  Solving for ILambda_127_0, Initial residual = 7.88799059563e-16, Final residual = 2.04580023766e-61, No Iterations 33
min/max(T) = 1000, 1000
PIMPLE: iteration 2
Radiation solver iter: 0
DILUPBiCGStab:  Solving for ILambda_0_0, Initial residual = 2.25258161619e-16, Final residual = 1.74722443927e-63, No Iterations 2
DILUPBiCGStab:  Solving for ILambda_1_0, Initial residual = 2.31181902133e-16, Final residual = 2.28514234504e-63, No Iterations 2
DILUPBiCGStab:  Solving for ILambda_2_0, Initial residual = 2.24689819728e-16, Final residual = 1.2671830925e-63, No Iterations 2
DILUPBiCGStab:  Solving for ILambda_3_0, Initial residual = 2.30399072363e-16, Final residual = 1.17436341957e-63, No Iterations 2
DILUPBiCGStab:  Solving for ILambda_4_0, Initial residual = 2.32003482487e-16, Final residual = 1.13850362735e-63, No Iterations 2
DILUPBiCGStab:  Solving for ILambda_5_0, Initial residual = 2.43810513345e-16, Final residual = 1.39156702786e-63, No Iterations 2
DILUPBiCGStab:  Solving for ILambda_6_0, Initial residual = 2.43468216524e-16, Final residual = 1.97328524014e-63, No Iterations 2
DILUPBiCGStab:  Solving for ILambda_7_0, Initial residual = 2.33951209184e-16, Final residual = 1.51020802285e-63, No Iterations 2
DILUPBiCGStab:  Solving for ILambda_8_0, Initial residual = 2.5087365698e-16, Final residual = 2.05258272105e-61, No Iterations 32
DILUPBiCGStab:  Solving for ILambda_9_0, Initial residual = 2.72244943696e-16, Final residual = 1.20666697722e-61, No Iterations 46
DILUPBiCGStab:  Solving for ILambda_10_0, Initial residual = 2.81528087866e-16, Final residual = 6.18553522634e-61, No Iterations 52
DILUPBiCGStab:  Solving for ILambda_11_0, Initial residual = 3.19272855778e-16, Final residual = 2.00028294163e-61, No Iterations 59
DILUPBiCGStab:  Solving for ILambda_12_0, Initial residual = 2.78340682414e-16, Final residual = 1.3790409146e-61, No Iterations 57
DILUPBiCGStab:  Solving for ILambda_13_0, Initial residual = 3.02864023172e-16, Final residual = 5.95638650407e-61, No Iterations 52
DILUPBiCGStab:  Solving for ILambda_14_0, Initial residual = 3.02552658834e-16, Final residual = 9.53938527451e-62, No Iterations 45
DILUPBiCGStab:  Solving for ILambda_15_0, Initial residual = 2.74957824458e-16, Final residual = 4.52575637682e-62, No Iterations 34
DILUPBiCGStab:  Solving for ILambda_16_0, Initial residual = 2.71950575229e-16, Final residual = 1.82474733119e-62, No Iterations 18
DILUPBiCGStab:  Solving for ILambda_17_0, Initial residual = 2.85239645946e-16, Final residual = 1.56633896241e-62, No Iterations 20
DILUPBiCGStab:  Solving for ILambda_18_0, Initial residual = 2.81989015859e-16, Final residual = 9.12429746922e-62, No Iterations 18
DILUPBiCGStab:  Solving for ILambda_19_0, Initial residual = 2.73013157018e-16, Final residual = 3.64148426273e-61, No Iterations 19
DILUPBiCGStab:  Solving for ILambda_20_0, Initial residual = 2.61238078396e-16, Final residual = 5.76985459274e-61, No Iterations 19
DILUPBiCGStab:  Solving for ILambda_21_0, Initial residual = 2.54401659666e-16, Final residual = 9.39913344192e-61, No Iterations 21
DILUPBiCGStab:  Solving for ILambda_22_0, Initial residual = 2.60248918765e-16, Final residual = 2.20444227772e-61, No Iterations 21
DILUPBiCGStab:  Solving for ILambda_23_0, Initial residual = 2.57859979284e-16, Final residual = 8.14517388659e-61, No Iterations 19
DILUPBiCGStab:  Solving for ILambda_24_0, Initial residual = 2.68431410396e-16, Final residual = 5.20897825931e-61, No Iterations 32
DILUPBiCGStab:  Solving for ILambda_25_0, Initial residual = 3.01569277799e-16, Final residual = 2.95457997468e-61, No Iterations 45
DILUPBiCGStab:  Solving for ILambda_26_0, Initial residual = 3.0651575579e-16, Final residual = 7.78816597089e-61, No Iterations 53
DILUPBiCGStab:  Solving for ILambda_27_0, Initial residual = 2.77153350939e-16, Final residual = 2.23273146846e-61, No Iterations 57
DILUPBiCGStab:  Solving for ILambda_28_0, Initial residual = 2.76615601614e-16, Final residual = 7.08858673333e-62, No Iterations 58
DILUPBiCGStab:  Solving for ILambda_29_0, Initial residual = 2.80431854253e-16, Final residual = 4.85122633378e-61, No Iterations 54
DILUPBiCGStab:  Solving for ILambda_30_0, Initial residual = 2.7330038722e-16, Final residual = 1.6261124773e-62, No Iterations 45
DILUPBiCGStab:  Solving for ILambda_31_0, Initial residual = 2.48577175032e-16, Final residual = 3.22977150059e-62, No Iterations 32
DILUPBiCGStab:  Solving for ILambda_32_0, Initial residual = 8.28381420934e-16, Final residual = 9.12943159327e-63, No Iterations 2
DILUPBiCGStab:  Solving for ILambda_33_0, Initial residual = 9.3703397805e-16, Final residual = 9.49176987951e-63, No Iterations 2
DILUPBiCGStab:  Solving for ILambda_34_0, Initial residual = 9.37617276307e-16, Final residual = 1.23267451763e-62, No Iterations 2
DILUPBiCGStab:  Solving for ILambda_35_0, Initial residual = 9.2261740132e-16, Final residual = 8.63658561719e-63, No Iterations 2
DILUPBiCGStab:  Solving for ILambda_36_0, Initial residual = 9.89199061785e-16, Final residual = 1.3711789018e-62, No Iterations 2
DILUPBiCGStab:  Solving for ILambda_37_0, Initial residual = 1.06037504582e-15, Final residual = 1.1153272749e-62, No Iterations 2
DILUPBiCGStab:  Solving for ILambda_38_0, Initial residual = 1.06276942398e-15, Final residual = 1.19628339245e-62, No Iterations 2
DILUPBiCGStab:  Solving for ILambda_39_0, Initial residual = 9.01261070969e-16, Final residual = 1.22429132755e-62, No Iterations 2
DILUPBiCGStab:  Solving for ILambda_40_0, Initial residual = 8.83552734146e-16, Final residual = 9.44500490487e-61, No Iterations 36
DILUPBiCGStab:  Solving for ILambda_41_0, Initial residual = 1.16936480099e-15, Final residual = 8.64951491749e-61, No Iterations 51
DILUPBiCGStab:  Solving for ILambda_42_0, Initial residual = 1.16576303623e-15, Final residual = 9.97438085586e-61, No Iterations 61
DILUPBiCGStab:  Solving for ILambda_43_0, Initial residual = 1.21774184523e-15, Final residual = 2.55925769576e-61, No Iterations 65
DILUPBiCGStab:  Solving for ILambda_44_0, Initial residual = 1.23037861446e-15, Final residual = 1.51741288634e-61, No Iterations 65
DILUPBiCGStab:  Solving for ILambda_45_0, Initial residual = 1.39492718868e-15, Final residual = 1.3924450459e-61, No Iterations 59
DILUPBiCGStab:  Solving for ILambda_46_0, Initial residual = 1.18112186399e-15, Final residual = 3.77143442874e-61, No Iterations 51
DILUPBiCGStab:  Solving for ILambda_47_0, Initial residual = 9.91490105055e-16, Final residual = 1.76241900721e-61, No Iterations 37
DILUPBiCGStab:  Solving for ILambda_48_0, Initial residual = 1.04622360466e-15, Final residual = 4.44123557566e-61, No Iterations 21
DILUPBiCGStab:  Solving for ILambda_49_0, Initial residual = 1.09230008794e-15, Final residual = 7.06668414193e-61, No Iterations 21
DILUPBiCGStab:  Solving for ILambda_50_0, Initial residual = 1.12243988388e-15, Final residual = 1.37617307594e-61, No Iterations 23
DILUPBiCGStab:  Solving for ILambda_51_0, Initial residual = 1.03743877939e-15, Final residual = 3.10794182759e-62, No Iterations 23
DILUPBiCGStab:  Solving for ILambda_52_0, Initial residual = 9.96345485183e-16, Final residual = 8.66828196594e-62, No Iterations 23
DILUPBiCGStab:  Solving for ILambda_53_0, Initial residual = 1.0486275005e-15, Final residual = 3.0025924549e-61, No Iterations 22
DILUPBiCGStab:  Solving for ILambda_54_0, Initial residual = 1.00705560259e-15, Final residual = 5.44500993469e-62, No Iterations 22
DILUPBiCGStab:  Solving for ILambda_55_0, Initial residual = 9.72559425264e-16, Final residual = 2.59012828594e-61, No Iterations 22
DILUPBiCGStab:  Solving for ILambda_56_0, Initial residual = 1.05185127712e-15, Final residual = 6.37189176867e-61, No Iterations 37
DILUPBiCGStab:  Solving for ILambda_57_0, Initial residual = 1.32250030862e-15, Final residual = 9.30839068482e-61, No Iterations 50
DILUPBiCGStab:  Solving for ILambda_58_0, Initial residual = 1.29065548701e-15, Final residual = 2.12491547312e-62, No Iterations 60
DILUPBiCGStab:  Solving for ILambda_59_0, Initial residual = 1.32980717303e-15, Final residual = 9.29806474305e-61, No Iterations 64
DILUPBiCGStab:  Solving for ILambda_60_0, Initial residual = 1.42073235795e-15, Final residual = 4.10219859987e-61, No Iterations 66
DILUPBiCGStab:  Solving for ILambda_61_0, Initial residual = 1.13185015716e-15, Final residual = 2.85908628993e-61, No Iterations 61
DILUPBiCGStab:  Solving for ILambda_62_0, Initial residual = 1.10593213531e-15, Final residual = 9.22944879837e-61, No Iterations 52
DILUPBiCGStab:  Solving for ILambda_63_0, Initial residual = 8.90360599815e-16, Final residual = 9.05286576106e-61, No Iterations 35
DILUPBiCGStab:  Solving for ILambda_64_0, Initial residual = 8.16811992339e-16, Final residual = 6.49775840505e-61, No Iterations 22
DILUPBiCGStab:  Solving for ILambda_65_0, Initial residual = 9.91887128578e-16, Final residual = 4.22913201027e-62, No Iterations 23
DILUPBiCGStab:  Solving for ILambda_66_0, Initial residual = 9.19067304005e-16, Final residual = 4.3720460264e-63, No Iterations 24
DILUPBiCGStab:  Solving for ILambda_67_0, Initial residual = 9.83939859787e-16, Final residual = 1.30299108954e-61, No Iterations 23
DILUPBiCGStab:  Solving for ILambda_68_0, Initial residual = 1.00165091595e-15, Final residual = 9.12379508408e-61, No Iterations 22
DILUPBiCGStab:  Solving for ILambda_69_0, Initial residual = 1.09284531545e-15, Final residual = 1.9169562843e-61, No Iterations 24
DILUPBiCGStab:  Solving for ILambda_70_0, Initial residual = 1.06114733815e-15, Final residual = 1.64316890527e-61, No Iterations 23
DILUPBiCGStab:  Solving for ILambda_71_0, Initial residual = 8.93264854074e-16, Final residual = 1.19848094507e-62, No Iterations 22
DILUPBiCGStab:  Solving for ILambda_72_0, Initial residual = 8.43975471536e-16, Final residual = 7.44336508391e-61, No Iterations 38
DILUPBiCGStab:  Solving for ILambda_73_0, Initial residual = 1.02886198358e-15, Final residual = 5.05024128823e-61, No Iterations 50
DILUPBiCGStab:  Solving for ILambda_74_0, Initial residual = 1.05790452616e-15, Final residual = 6.34863303264e-61, No Iterations 60
DILUPBiCGStab:  Solving for ILambda_75_0, Initial residual = 1.19831488604e-15, Final residual = 3.4529872174e-61, No Iterations 66
DILUPBiCGStab:  Solving for ILambda_76_0, Initial residual = 1.15035933938e-15, Final residual = 8.82202176532e-61, No Iterations 66
DILUPBiCGStab:  Solving for ILambda_77_0, Initial residual = 1.16430954943e-15, Final residual = 6.64659411002e-61, No Iterations 60
DILUPBiCGStab:  Solving for ILambda_78_0, Initial residual = 1.03417285303e-15, Final residual = 3.55243536855e-61, No Iterations 51
DILUPBiCGStab:  Solving for ILambda_79_0, Initial residual = 8.82573772038e-16, Final residual = 2.79357754143e-61, No Iterations 35
DILUPBiCGStab:  Solving for ILambda_80_0, Initial residual = 7.76998147218e-16, Final residual = 9.66732507496e-63, No Iterations 2
DILUPBiCGStab:  Solving for ILambda_81_0, Initial residual = 9.27882041998e-16, Final residual = 8.88138520789e-63, No Iterations 2
DILUPBiCGStab:  Solving for ILambda_82_0, Initial residual = 9.83587705362e-16, Final residual = 1.3422095059e-62, No Iterations 2
DILUPBiCGStab:  Solving for ILambda_83_0, Initial residual = 9.22280203261e-16, Final residual = 8.95724248616e-63, No Iterations 2
DILUPBiCGStab:  Solving for ILambda_84_0, Initial residual = 9.07792923711e-16, Final residual = 8.6263426969e-63, No Iterations 2
DILUPBiCGStab:  Solving for ILambda_85_0, Initial residual = 8.55984073411e-16, Final residual = 1.00995894437e-62, No Iterations 2
DILUPBiCGStab:  Solving for ILambda_86_0, Initial residual = 8.35062837331e-16, Final residual = 8.48321146835e-63, No Iterations 2
DILUPBiCGStab:  Solving for ILambda_87_0, Initial residual = 7.43208998078e-16, Final residual = 1.08356152056e-62, No Iterations 2
DILUPBiCGStab:  Solving for ILambda_88_0, Initial residual = 8.24105260054e-16, Final residual = 1.36307856913e-61, No Iterations 36
DILUPBiCGStab:  Solving for ILambda_89_0, Initial residual = 1.0393749489e-15, Final residual = 3.26116083917e-61, No Iterations 51
DILUPBiCGStab:  Solving for ILambda_90_0, Initial residual = 1.14140863442e-15, Final residual = 4.0420719384e-61, No Iterations 61
DILUPBiCGStab:  Solving for ILambda_91_0, Initial residual = 1.16805000049e-15, Final residual = 8.05877672194e-61, No Iterations 67
DILUPBiCGStab:  Solving for ILambda_92_0, Initial residual = 1.36000543477e-15, Final residual = 5.36895805917e-61, No Iterations 66
DILUPBiCGStab:  Solving for ILambda_93_0, Initial residual = 1.05178737265e-15, Final residual = 3.81555566832e-61, No Iterations 59
DILUPBiCGStab:  Solving for ILambda_94_0, Initial residual = 1.17161097517e-15, Final residual = 2.21557708065e-61, No Iterations 51
DILUPBiCGStab:  Solving for ILambda_95_0, Initial residual = 8.46428315487e-16, Final residual = 5.23834402234e-61, No Iterations 37
DILUPBiCGStab:  Solving for ILambda_96_0, Initial residual = 2.80917596217e-16, Final residual = 6.6747961875e-61, No Iterations 19
DILUPBiCGStab:  Solving for ILambda_97_0, Initial residual = 2.88358048166e-16, Final residual = 4.83909408122e-61, No Iterations 19
DILUPBiCGStab:  Solving for ILambda_98_0, Initial residual = 2.81203126833e-16, Final residual = 7.09192375238e-62, No Iterations 20
DILUPBiCGStab:  Solving for ILambda_99_0, Initial residual = 2.95680548777e-16, Final residual = 1.38731020015e-61, No Iterations 21
DILUPBiCGStab:  Solving for ILambda_100_0, Initial residual = 3.21940867445e-16, Final residual = 3.47141118082e-61, No Iterations 19
DILUPBiCGStab:  Solving for ILambda_101_0, Initial residual = 3.08964180817e-16, Final residual = 1.07978734327e-61, No Iterations 19
DILUPBiCGStab:  Solving for ILambda_102_0, Initial residual = 3.04011584312e-16, Final residual = 1.93751795199e-61, No Iterations 18
DILUPBiCGStab:  Solving for ILambda_103_0, Initial residual = 2.99572602997e-16, Final residual = 5.37985226239e-61, No Iterations 19
DILUPBiCGStab:  Solving for ILambda_104_0, Initial residual = 2.90477773067e-16, Final residual = 1.19171959589e-62, No Iterations 33
DILUPBiCGStab:  Solving for ILambda_105_0, Initial residual = 3.01514551098e-16, Final residual = 7.76705455505e-61, No Iterations 45
DILUPBiCGStab:  Solving for ILambda_106_0, Initial residual = 3.35354687848e-16, Final residual = 7.44338564517e-61, No Iterations 53
DILUPBiCGStab:  Solving for ILambda_107_0, Initial residual = 3.00069902152e-16, Final residual = 4.73167465941e-61, No Iterations 57
DILUPBiCGStab:  Solving for ILambda_108_0, Initial residual = 3.32919519601e-16, Final residual = 1.98438430268e-63, No Iterations 59
DILUPBiCGStab:  Solving for ILambda_109_0, Initial residual = 3.2892175107e-16, Final residual = 3.40133078977e-61, No Iterations 53
DILUPBiCGStab:  Solving for ILambda_110_0, Initial residual = 3.04710454484e-16, Final residual = 5.69064370445e-61, No Iterations 46
DILUPBiCGStab:  Solving for ILambda_111_0, Initial residual = 2.83298037763e-16, Final residual = 2.02953847101e-61, No Iterations 32
DILUPBiCGStab:  Solving for ILambda_112_0, Initial residual = 2.53004259238e-16, Final residual = 1.93260867663e-63, No Iterations 2
DILUPBiCGStab:  Solving for ILambda_113_0, Initial residual = 2.68750932751e-16, Final residual = 2.5488953442e-63, No Iterations 2
DILUPBiCGStab:  Solving for ILambda_114_0, Initial residual = 2.6929480059e-16, Final residual = 2.07813075092e-63, No Iterations 2
DILUPBiCGStab:  Solving for ILambda_115_0, Initial residual = 2.68470840815e-16, Final residual = 1.3534098249e-63, No Iterations 2
DILUPBiCGStab:  Solving for ILambda_116_0, Initial residual = 2.54707245408e-16, Final residual = 1.24633155726e-63, No Iterations 2
DILUPBiCGStab:  Solving for ILambda_117_0, Initial residual = 2.38749143272e-16, Final residual = 1.22399692965e-63, No Iterations 2
DILUPBiCGStab:  Solving for ILambda_118_0, Initial residual = 2.43020885227e-16, Final residual = 1.93609591818e-63, No Iterations 2
DILUPBiCGStab:  Solving for ILambda_119_0, Initial residual = 2.37382675328e-16, Final residual = 1.44170643675e-63, No Iterations 2
DILUPBiCGStab:  Solving for ILambda_120_0, Initial residual = 2.83302116772e-16, Final residual = 1.51067625679e-61, No Iterations 33
DILUPBiCGStab:  Solving for ILambda_121_0, Initial residual = 3.07144942897e-16, Final residual = 3.36171597755e-61, No Iterations 46
DILUPBiCGStab:  Solving for ILambda_122_0, Initial residual = 3.34425693596e-16, Final residual = 6.82495622795e-61, No Iterations 54
DILUPBiCGStab:  Solving for ILambda_123_0, Initial residual = 3.3295623068e-16, Final residual = 2.51431901637e-61, No Iterations 57
DILUPBiCGStab:  Solving for ILambda_124_0, Initial residual = 3.07198309928e-16, Final residual = 1.11157361258e-61, No Iterations 58
DILUPBiCGStab:  Solving for ILambda_125_0, Initial residual = 3.26824460717e-16, Final residual = 1.00186824583e-61, No Iterations 53
DILUPBiCGStab:  Solving for ILambda_126_0, Initial residual = 2.96584049224e-16, Final residual = 2.0630552352e-62, No Iterations 46
DILUPBiCGStab:  Solving for ILambda_127_0, Initial residual = 2.92182118906e-16, Final residual = 6.58160646086e-61, No Iterations 33
min/max(T) = 1000, 1000
PIMPLE: iteration 3
Radiation solver iter: 0
DILUPBiCGStab:  Solving for ILambda_0_0, Initial residual = 2.2207177592e-16, Final residual = 1.73262972672e-63, No Iterations 2
DILUPBiCGStab:  Solving for ILambda_1_0, Initial residual = 2.25768377635e-16, Final residual = 1.44639958225e-63, No Iterations 2
DILUPBiCGStab:  Solving for ILambda_2_0, Initial residual = 2.17561751869e-16, Final residual = 1.15361697496e-63, No Iterations 2
DILUPBiCGStab:  Solving for ILambda_3_0, Initial residual = 2.21801881505e-16, Final residual = 1.09897927978e-63, No Iterations 2
DILUPBiCGStab:  Solving for ILambda_4_0, Initial residual = 2.25591960505e-16, Final residual = 1.06075967736e-63, No Iterations 2
DILUPBiCGStab:  Solving for ILambda_5_0, Initial residual = 2.33235003224e-16, Final residual = 1.36118433361e-63, No Iterations 2
DILUPBiCGStab:  Solving for ILambda_6_0, Initial residual = 2.33718025848e-16, Final residual = 1.33215835325e-63, No Iterations 2
DILUPBiCGStab:  Solving for ILambda_7_0, Initial residual = 2.28955103252e-16, Final residual = 2.19125682273e-63, No Iterations 2
DILUPBiCGStab:  Solving for ILambda_8_0, Initial residual = 2.22761128406e-16, Final residual = 2.23648706285e-61, No Iterations 32
DILUPBiCGStab:  Solving for ILambda_9_0, Initial residual = 2.28977197883e-16, Final residual = 9.03245758595e-65, No Iterations 48
DILUPBiCGStab:  Solving for ILambda_10_0, Initial residual = 2.39597917018e-16, Final residual = 6.53928605436e-63, No Iterations 54
DILUPBiCGStab:  Solving for ILambda_11_0, Initial residual = 2.34425054038e-16, Final residual = 6.937225554e-61, No Iterations 57
DILUPBiCGStab:  Solving for ILambda_12_0, Initial residual = 2.50263165332e-16, Final residual = 5.91402564174e-64, No Iterations 59
DILUPBiCGStab:  Solving for ILambda_13_0, Initial residual = 2.57988468061e-16, Final residual = 7.4853850647e-61, No Iterations 52
DILUPBiCGStab:  Solving for ILambda_14_0, Initial residual = 2.51795173049e-16, Final residual = 5.31489708275e-62, No Iterations 44
DILUPBiCGStab:  Solving for ILambda_15_0, Initial residual = 2.3739015351e-16, Final residual = 2.00231006491e-61, No Iterations 32
DILUPBiCGStab:  Solving for ILambda_16_0, Initial residual = 2.30999706407e-16, Final residual = 2.6333444113e-61, No Iterations 18
DILUPBiCGStab:  Solving for ILambda_17_0, Initial residual = 2.45127693266e-16, Final residual = 3.45601962752e-61, No Iterations 19
DILUPBiCGStab:  Solving for ILambda_18_0, Initial residual = 2.43373379569e-16, Final residual = 7.42049264106e-61, No Iterations 19
DILUPBiCGStab:  Solving for ILambda_19_0, Initial residual = 2.34682031592e-16, Final residual = 3.17036251663e-61, No Iterations 19
DILUPBiCGStab:  Solving for ILambda_20_0, Initial residual = 2.30336187644e-16, Final residual = 2.71062949892e-62, No Iterations 19
DILUPBiCGStab:  Solving for ILambda_21_0, Initial residual = 2.22494293247e-16, Final residual = 1.10211469031e-61, No Iterations 20
DILUPBiCGStab:  Solving for ILambda_22_0, Initial residual = 2.24170086025e-16, Final residual = 3.28713933466e-61, No Iterations 19
DILUPBiCGStab:  Solving for ILambda_23_0, Initial residual = 2.26896563483e-16, Final residual = 9.49196313451e-61, No Iterations 18
DILUPBiCGStab:  Solving for ILambda_24_0, Initial residual = 2.31393330756e-16, Final residual = 6.02128017932e-61, No Iterations 33
DILUPBiCGStab:  Solving for ILambda_25_0, Initial residual = 2.55895596635e-16, Final residual = 2.15913397247e-61, No Iterations 46
DILUPBiCGStab:  Solving for ILambda_26_0, Initial residual = 2.49756008572e-16, Final residual = 6.88622589612e-62, No Iterations 52
DILUPBiCGStab:  Solving for ILambda_27_0, Initial residual = 2.3461166869e-16, Final residual = 3.52623113434e-61, No Iterations 59
DILUPBiCGStab:  Solving for ILambda_28_0, Initial residual = 2.34303363609e-16, Final residual = 5.14985868912e-61, No Iterations 56
DILUPBiCGStab:  Solving for ILambda_29_0, Initial residual = 2.25831942189e-16, Final residual = 2.71545527648e-62, No Iterations 55
DILUPBiCGStab:  Solving for ILambda_30_0, Initial residual = 2.30267184412e-16, Final residual = 5.07552104278e-61, No Iterations 46
DILUPBiCGStab:  Solving for ILambda_31_0, Initial residual = 2.22256351068e-16, Final residual = 5.53303986487e-61, No Iterations 31
DILUPBiCGStab:  Solving for ILambda_32_0, Initial residual = 8.08354847449e-16, Final residual = 9.74579769569e-63, No Iterations 2
DILUPBiCGStab:  Solving for ILambda_33_0, Initial residual = 9.19571741424e-16, Final residual = 1.02085022619e-62, No Iterations 2
DILUPBiCGStab:  Solving for ILambda_34_0, Initial residual = 9.3346212602e-16, Final residual = 1.22116990667e-62, No Iterations 2
DILUPBiCGStab:  Solving for ILambda_35_0, Initial residual = 9.03042238141e-16, Final residual = 9.21135212545e-63, No Iterations 2
DILUPBiCGStab:  Solving for ILambda_36_0, Initial residual = 9.64939836846e-16, Final residual = 1.42924186979e-62, No Iterations 2
DILUPBiCGStab:  Solving for ILambda_37_0, Initial residual = 1.06695312732e-15, Final residual = 1.30891715101e-62, No Iterations 2
DILUPBiCGStab:  Solving for ILambda_38_0, Initial residual = 1.05324085944e-15, Final residual = 1.15523229122e-62, No Iterations 2
DILUPBiCGStab:  Solving for ILambda_39_0, Initial residual = 8.81292963277e-16, Final residual = 9.35224405404e-63, No Iterations 2
DILUPBiCGStab:  Solving for ILambda_40_0, Initial residual = 8.27127805566e-16, Final residual = 4.88765373558e-61, No Iterations 35
DILUPBiCGStab:  Solving for ILambda_41_0, Initial residual = 9.4686982791e-16, Final residual = 3.45683200269e-61, No Iterations 53
DILUPBiCGStab:  Solving for ILambda_42_0, Initial residual = 1.00225053024e-15, Final residual = 5.78114342473e-62, No Iterations 61
DILUPBiCGStab:  Solving for ILambda_43_0, Initial residual = 1.01265472199e-15, Final residual = 4.47804080408e-61, No Iterations 66
DILUPBiCGStab:  Solving for ILambda_44_0, Initial residual = 1.04130432006e-15, Final residual = 8.59712729857e-61, No Iterations 66
DILUPBiCGStab:  Solving for ILambda_45_0, Initial residual = 1.15184001956e-15, Final residual = 9.43190939633e-61, No Iterations 60
DILUPBiCGStab:  Solving for ILambda_46_0, Initial residual = 1.04774371527e-15, Final residual = 6.45855896851e-61, No Iterations 49
DILUPBiCGStab:  Solving for ILambda_47_0, Initial residual = 8.8764805897e-16, Final residual = 8.9228458619e-61, No Iterations 36
DILUPBiCGStab:  Solving for ILambda_48_0, Initial residual = 8.93191431915e-16, Final residual = 7.42087809282e-61, No Iterations 22
DILUPBiCGStab:  Solving for ILambda_49_0, Initial residual = 1.01435974767e-15, Final residual = 8.28736860974e-61, No Iterations 22
DILUPBiCGStab:  Solving for ILambda_50_0, Initial residual = 1.04140765495e-15, Final residual = 1.46747049551e-61, No Iterations 23
DILUPBiCGStab:  Solving for ILambda_51_0, Initial residual = 9.45303488535e-16, Final residual = 2.62755228245e-61, No Iterations 22
DILUPBiCGStab:  Solving for ILambda_52_0, Initial residual = 8.99599554723e-16, Final residual = 6.78030283478e-61, No Iterations 21
DILUPBiCGStab:  Solving for ILambda_53_0, Initial residual = 9.32110614442e-16, Final residual = 7.97428495785e-62, No Iterations 24
DILUPBiCGStab:  Solving for ILambda_54_0, Initial residual = 9.08101568709e-16, Final residual = 3.38439014517e-61, No Iterations 23
DILUPBiCGStab:  Solving for ILambda_55_0, Initial residual = 8.4634809498e-16, Final residual = 2.39238307313e-63, No Iterations 23
DILUPBiCGStab:  Solving for ILambda_56_0, Initial residual = 9.01263790309e-16, Final residual = 9.3679598062e-61, No Iterations 36
DILUPBiCGStab:  Solving for ILambda_57_0, Initial residual = 1.06510805568e-15, Final residual = 8.67061785675e-62, No Iterations 51
DILUPBiCGStab:  Solving for ILambda_58_0, Initial residual = 1.08608911722e-15, Final residual = 5.46648564661e-61, No Iterations 59
DILUPBiCGStab:  Solving for ILambda_59_0, Initial residual = 9.78612674307e-16, Final residual = 9.42032196957e-61, No Iterations 67
DILUPBiCGStab:  Solving for ILambda_60_0, Initial residual = 9.42276864014e-16, Final residual = 3.53639017036e-61, No Iterations 67
DILUPBiCGStab:  Solving for ILambda_61_0, Initial residual = 1.00820180406e-15, Final residual = 2.8738521957e-62, No Iterations 61
DILUPBiCGStab:  Solving for ILambda_62_0, Initial residual = 9.42532481898e-16, Final residual = 4.13251099483e-61, No Iterations 50
DILUPBiCGStab:  Solving for ILambda_63_0, Initial residual = 8.35045161626e-16, Final residual = 5.13804185024e-62, No Iterations 37
DILUPBiCGStab:  Solving for ILambda_64_0, Initial residual = 7.27591833094e-16, Final residual = 1.42645142907e-61, No Iterations 21
DILUPBiCGStab:  Solving for ILambda_65_0, Initial residual = 8.78082783361e-16, Final residual = 7.08818774582e-61, No Iterations 21
[...]
DILUPBiCGStab:  Solving for ILambda_108_0, Initial residual = 2.57055054883e-16, Final residual = 7.57365203291e-61, No Iterations 57
DILUPBiCGStab:  Solving for ILambda_109_0, Initial residual = 2.77147572344e-16, Final residual = 8.34503849322e-61, No Iterations 55
DILUPBiCGStab:  Solving for ILambda_110_0, Initial residual = 2.44174224962e-16, Final residual = 4.03401929293e-61, No Iterations 46
DILUPBiCGStab:  Solving for ILambda_111_0, Initial residual = 2.40530990279e-16, Final residual = 3.33516324533e-61, No Iterations 32
DILUPBiCGStab:  Solving for ILambda_112_0, Initial residual = 2.41501114536e-16, Final residual = 1.72858647405e-63, No Iterations 2
DILUPBiCGStab:  Solving for ILambda_113_0, Initial residual = 2.56004030285e-16, Final residual = 1.7625836678e-63, No Iterations 2
DILUPBiCGStab:  Solving for ILambda_114_0, Initial residual = 2.56022725742e-16, Final residual = 1.95416304999e-63, No Iterations 2
DILUPBiCGStab:  Solving for ILambda_115_0, Initial residual = 2.55293602921e-16, Final residual = 1.26229318399e-63, No Iterations 2
DILUPBiCGStab:  Solving for ILambda_116_0, Initial residual = 2.46659361067e-16, Final residual = 1.33505130487e-63, No Iterations 2
DILUPBiCGStab:  Solving for ILambda_117_0, Initial residual = 2.31715912368e-16, Final residual = 1.28936133291e-63, No Iterations 2
DILUPBiCGStab:  Solving for ILambda_118_0, Initial residual = 2.37220534729e-16, Final residual = 2.06679139144e-63, No Iterations 2
DILUPBiCGStab:  Solving for ILambda_119_0, Initial residual = 2.2956831424e-16, Final residual = 1.34349346407e-63, No Iterations 2
DILUPBiCGStab:  Solving for ILambda_120_0, Initial residual = 2.42796539743e-16, Final residual = 9.17390609053e-63, No Iterations 32
DILUPBiCGStab:  Solving for ILambda_121_0, Initial residual = 2.50007547448e-16, Final residual = 3.59936645761e-61, No Iterations 46
DILUPBiCGStab:  Solving for ILambda_122_0, Initial residual = 2.50820629867e-16, Final residual = 3.44584026742e-61, No Iterations 54
DILUPBiCGStab:  Solving for ILambda_123_0, Initial residual = 2.58906245039e-16, Final residual = 8.99584629048e-61, No Iterations 59
DILUPBiCGStab:  Solving for ILambda_124_0, Initial residual = 2.41221022599e-16, Final residual = 8.26512626089e-61, No Iterations 57
DILUPBiCGStab:  Solving for ILambda_125_0, Initial residual = 2.3100208583e-16, Final residual = 7.28079662221e-62, No Iterations 53
DILUPBiCGStab:  Solving for ILambda_126_0, Initial residual = 2.31888250489e-16, Final residual = 7.86983087276e-61, No Iterations 45
DILUPBiCGStab:  Solving for ILambda_127_0, Initial residual = 2.24751344778e-16, Final residual = 4.1414940546e-61, No Iterations 33
min/max(T) = 1000, 1000
PIMPLE: iteration 10
Radiation solver iter: 0
DILUPBiCGStab:  Solving for ILambda_0_0, Initial residual = 2.21269910776e-16, Final residual = 1.71229564228e-63, No Iterations 2
DILUPBiCGStab:  Solving for ILambda_1_0, Initial residual = 2.22219979906e-16, Final residual = 1.68021869492e-63, No Iterations 2
DILUPBiCGStab:  Solving for ILambda_2_0, Initial residual = 2.17231352157e-16, Final residual = 1.37035056001e-63, No Iterations 2
DILUPBiCGStab:  Solving for ILambda_3_0, Initial residual = 2.21660475867e-16, Final residual = 1.30020171519e-63, No Iterations 2
DILUPBiCGStab:  Solving for ILambda_4_0, Initial residual = 2.23262846487e-16, Final residual = 1.1862374857e-63, No Iterations 2
DILUPBiCGStab:  Solving for ILambda_5_0, Initial residual = 2.30591805529e-16, Final residual = 1.33874440664e-63, No Iterations 2
DILUPBiCGStab:  Solving for ILambda_6_0, Initial residual = 2.33765614284e-16, Final residual = 1.47997824821e-63, No Iterations 2
DILUPBiCGStab:  Solving for ILambda_7_0, Initial residual = 2.25822084584e-16, Final residual = 1.39231402479e-63, No Iterations 2
DILUPBiCGStab:  Solving for ILambda_8_0, Initial residual = 2.18106299542e-16, Final residual = 7.10221244178e-63, No Iterations 32
DILUPBiCGStab:  Solving for ILambda_9_0, Initial residual = 2.23079291091e-16, Final residual = 5.39195099339e-62, No Iterations 47
DILUPBiCGStab:  Solving for ILambda_10_0, Initial residual = 2.14853969868e-16, Final residual = 4.66654741876e-61, No Iterations 53
DILUPBiCGStab:  Solving for ILambda_11_0, Initial residual = 2.24810830322e-16, Final residual = 1.21195138318e-61, No Iterations 57
DILUPBiCGStab:  Solving for ILambda_12_0, Initial residual = 2.19213070594e-16, Final residual = 1.14795023776e-62, No Iterations 58
DILUPBiCGStab:  Solving for ILambda_13_0, Initial residual = 2.24425024074e-16, Final residual = 9.92394285792e-61, No Iterations 52
DILUPBiCGStab:  Solving for ILambda_14_0, Initial residual = 2.30794396298e-16, Final residual = 6.60677601368e-61, No Iterations 45
DILUPBiCGStab:  Solving for ILambda_15_0, Initial residual = 2.26854073808e-16, Final residual = 7.83098494892e-61, No Iterations 33
DILUPBiCGStab:  Solving for ILambda_16_0, Initial residual = 2.23225455573e-16, Final residual = 1.37553785826e-61, No Iterations 18
DILUPBiCGStab:  Solving for ILambda_17_0, Initial residual = 2.35311218698e-16, Final residual = 5.5014760106e-61, No Iterations 19
DILUPBiCGStab:  Solving for ILambda_18_0, Initial residual = 2.32437217088e-16, Final residual = 5.53861990123e-61, No Iterations 18
DILUPBiCGStab:  Solving for ILambda_19_0, Initial residual = 2.24094624362e-16, Final residual = 6.70910901575e-61, No Iterations 20
DILUPBiCGStab:  Solving for ILambda_20_0, Initial residual = 2.21571757426e-16, Final residual = 7.27152786012e-61, No Iterations 18
DILUPBiCGStab:  Solving for ILambda_21_0, Initial residual = 2.16047079939e-16, Final residual = 4.97061701594e-61, No Iterations 18
DILUPBiCGStab:  Solving for ILambda_22_0, Initial residual = 2.20823939148e-16, Final residual = 5.37347023757e-61, No Iterations 19
DILUPBiCGStab:  Solving for ILambda_23_0, Initial residual = 2.21120687038e-16, Final residual = 7.47022412138e-62, No Iterations 19
DILUPBiCGStab:  Solving for ILambda_24_0, Initial residual = 2.20679814171e-16, Final residual = 1.87586922882e-61, No Iterations 34
DILUPBiCGStab:  Solving for ILambda_25_0, Initial residual = 2.34026670846e-16, Final residual = 3.19421869798e-61, No Iterations 45
DILUPBiCGStab:  Solving for ILambda_26_0, Initial residual = 2.2634147837e-16, Final residual = 4.51539927055e-61, No Iterations 53
DILUPBiCGStab:  Solving for ILambda_27_0, Initial residual = 2.21374265417e-16, Final residual = 2.94391642893e-61, No Iterations 57
DILUPBiCGStab:  Solving for ILambda_28_0, Initial residual = 2.26142966609e-16, Final residual = 6.91368722129e-61, No Iterations 57
DILUPBiCGStab:  Solving for ILambda_29_0, Initial residual = 2.1612662061e-16, Final residual = 2.99762749986e-61, No Iterations 54
DILUPBiCGStab:  Solving for ILambda_30_0, Initial residual = 2.19713768923e-16, Final residual = 8.64715901697e-61, No Iterations 45
DILUPBiCGStab:  Solving for ILambda_31_0, Initial residual = 2.1848428769e-16, Final residual = 3.60571919497e-63, No Iterations 32
DILUPBiCGStab:  Solving for ILambda_32_0, Initial residual = 8.15971716528e-16, Final residual = 1.89890648327e-62, No Iterations 2
DILUPBiCGStab:  Solving for ILambda_33_0, Initial residual = 9.43336046629e-16, Final residual = 1.45611735403e-62, No Iterations 2
DILUPBiCGStab:  Solving for ILambda_34_0, Initial residual = 9.53921074437e-16, Final residual = 1.60992170771e-62, No Iterations 2
DILUPBiCGStab:  Solving for ILambda_35_0, Initial residual = 9.32968565957e-16, Final residual = 1.37260547526e-62, No Iterations 2
DILUPBiCGStab:  Solving for ILambda_36_0, Initial residual = 9.8039112214e-16, Final residual = 2.03534087969e-62, No Iterations 2
DILUPBiCGStab:  Solving for ILambda_37_0, Initial residual = 1.08085710862e-15, Final residual = 1.72523257948e-62, No Iterations 2
DILUPBiCGStab:  Solving for ILambda_38_0, Initial residual = 1.04330303436e-15, Final residual = 1.03987345827e-62, No Iterations 2
DILUPBiCGStab:  Solving for ILambda_39_0, Initial residual = 8.7585972357e-16, Final residual = 1.23121710466e-62, No Iterations 2
DILUPBiCGStab:  Solving for ILambda_40_0, Initial residual = 8.04553211257e-16, Final residual = 1.8257181108e-62, No Iterations 35
DILUPBiCGStab:  Solving for ILambda_41_0, Initial residual = 9.37769559302e-16, Final residual = 9.56338388906e-62, No Iterations 52
DILUPBiCGStab:  Solving for ILambda_42_0, Initial residual = 9.92774992823e-16, Final residual = 6.4975720055e-61, No Iterations 59
DILUPBiCGStab:  Solving for ILambda_43_0, Initial residual = 8.92454490994e-16, Final residual = 6.52428330389e-61, No Iterations 67
DILUPBiCGStab:  Solving for ILambda_44_0, Initial residual = 9.55105346656e-16, Final residual = 8.22515250163e-61, No Iterations 67
DILUPBiCGStab:  Solving for ILambda_45_0, Initial residual = 1.14502807489e-15, Final residual = 5.08455812868e-61, No Iterations 58
DILUPBiCGStab:  Solving for ILambda_46_0, Initial residual = 1.00788500105e-15, Final residual = 6.46883199495e-61, No Iterations 50
DILUPBiCGStab:  Solving for ILambda_47_0, Initial residual = 8.58931837095e-16, Final residual = 6.21048788984e-61, No Iterations 36
DILUPBiCGStab:  Solving for ILambda_48_0, Initial residual = 8.58838019893e-16, Final residual = 3.06464965197e-61, No Iterations 20
DILUPBiCGStab:  Solving for ILambda_49_0, Initial residual = 1.02454367294e-15, Final residual = 3.74818810512e-61, No Iterations 23
DILUPBiCGStab:  Solving for ILambda_50_0, Initial residual = 1.02396173436e-15, Final residual = 9.47794999647e-62, No Iterations 23
DILUPBiCGStab:  Solving for ILambda_51_0, Initial residual = 1.06918978381e-15, Final residual = 4.69603321062e-62, No Iterations 20
DILUPBiCGStab:  Solving for ILambda_52_0, Initial residual = 8.9879870933e-16, Final residual = 9.48297352623e-61, No Iterations 25
DILUPBiCGStab:  Solving for ILambda_53_0, Initial residual = 9.59816601807e-16, Final residual = 6.64452037749e-61, No Iterations 23
DILUPBiCGStab:  Solving for ILambda_54_0, Initial residual = 9.13914156233e-16, Final residual = 7.11913245564e-61, No Iterations 21
DILUPBiCGStab:  Solving for ILambda_55_0, Initial residual = 8.07214084657e-16, Final residual = 2.44681875283e-61, No Iterations 23
DILUPBiCGStab:  Solving for ILambda_56_0, Initial residual = 8.43661387858e-16, Final residual = 1.37035143138e-62, No Iterations 38
DILUPBiCGStab:  Solving for ILambda_57_0, Initial residual = 1.03731368979e-15, Final residual = 4.70181377913e-61, No Iterations 51
DILUPBiCGStab:  Solving for ILambda_58_0, Initial residual = 1.11246262838e-15, Final residual = 5.1037385352e-61, No Iterations 60
DILUPBiCGStab:  Solving for ILambda_59_0, Initial residual = 9.99552945761e-16, Final residual = 1.4043541664e-62, No Iterations 65
DILUPBiCGStab:  Solving for ILambda_60_0, Initial residual = 9.15746990849e-16, Final residual = 5.15497340311e-61, No Iterations 65
DILUPBiCGStab:  Solving for ILambda_61_0, Initial residual = 9.72094418262e-16, Final residual = 3.7755597244e-61, No Iterations 60
DILUPBiCGStab:  Solving for ILambda_62_0, Initial residual = 9.18856555216e-16, Final residual = 4.10349115703e-62, No Iterations 52
DILUPBiCGStab:  Solving for ILambda_63_0, Initial residual = 8.22102466738e-16, Final residual = 2.57719503266e-61, No Iterations 36
DILUPBiCGStab:  Solving for ILambda_64_0, Initial residual = 6.96089648216e-16, Final residual = 3.65267755363e-61, No Iterations 23
DILUPBiCGStab:  Solving for ILambda_65_0, Initial residual = 8.81098530526e-16, Final residual = 2.47007076702e-61, No Iterations 22
DILUPBiCGStab:  Solving for ILambda_66_0, Initial residual = 8.75439585665e-16, Final residual = 3.21978288188e-61, No Iterations 25
DILUPBiCGStab:  Solving for ILambda_67_0, Initial residual = 9.04070148356e-16, Final residual = 8.18989749365e-61, No Iterations 22
DILUPBiCGStab:  Solving for ILambda_68_0, Initial residual = 9.16046118161e-16, Final residual = 4.48317166484e-61, No Iterations 22
DILUPBiCGStab:  Solving for ILambda_69_0, Initial residual = 1.00005874285e-15, Final residual = 7.84919663643e-61, No Iterations 21
DILUPBiCGStab:  Solving for ILambda_70_0, Initial residual = 9.51737445066e-16, Final residual = 2.99724123847e-62, No Iterations 22
DILUPBiCGStab:  Solving for ILambda_71_0, Initial residual = 7.51415963762e-16, Final residual = 2.30918817286e-62, No Iterations 22
DILUPBiCGStab:  Solving for ILambda_72_0, Initial residual = 6.96617200019e-16, Final residual = 5.97069591596e-61, No Iterations 37
DILUPBiCGStab:  Solving for ILambda_73_0, Initial residual = 8.20012654569e-16, Final residual = 6.90961583114e-61, No Iterations 50
DILUPBiCGStab:  Solving for ILambda_74_0, Initial residual = 8.5113413196e-16, Final residual = 2.84673731782e-61, No Iterations 60
DILUPBiCGStab:  Solving for ILambda_75_0, Initial residual = 9.51426080729e-16, Final residual = 1.82779686453e-61, No Iterations 66
DILUPBiCGStab:  Solving for ILambda_76_0, Initial residual = 9.16312613402e-16, Final residual = 1.21747112716e-61, No Iterations 67
DILUPBiCGStab:  Solving for ILambda_77_0, Initial residual = 1.06574166171e-15, Final residual = 2.15990150532e-61, No Iterations 60
DILUPBiCGStab:  Solving for ILambda_78_0, Initial residual = 9.17793293593e-16, Final residual = 1.61104098021e-62, No Iterations 52
DILUPBiCGStab:  Solving for ILambda_79_0, Initial residual = 7.67137823305e-16, Final residual = 9.63320184009e-61, No Iterations 36
DILUPBiCGStab:  Solving for ILambda_80_0, Initial residual = 7.51307190194e-16, Final residual = 9.46133032783e-63, No Iterations 2
DILUPBiCGStab:  Solving for ILambda_81_0, Initial residual = 9.46528550843e-16, Final residual = 1.03463589275e-62, No Iterations 2
DILUPBiCGStab:  Solving for ILambda_82_0, Initial residual = 1.00023142089e-15, Final residual = 3.72538905144e-62, No Iterations 2
DILUPBiCGStab:  Solving for ILambda_83_0, Initial residual = 9.31247224249e-16, Final residual = 1.12396916654e-62, No Iterations 2
DILUPBiCGStab:  Solving for ILambda_84_0, Initial residual = 9.19143445502e-16, Final residual = 1.51774614464e-62, No Iterations 2
DILUPBiCGStab:  Solving for ILambda_85_0, Initial residual = 8.917297871e-16, Final residual = 1.49955772406e-62, No Iterations 2
DILUPBiCGStab:  Solving for ILambda_86_0, Initial residual = 8.61061079684e-16, Final residual = 1.29591576891e-62, No Iterations 2
DILUPBiCGStab:  Solving for ILambda_87_0, Initial residual = 7.12333620883e-16, Final residual = 9.87040933705e-63, No Iterations 2
DILUPBiCGStab:  Solving for ILambda_88_0, Initial residual = 7.46591856034e-16, Final residual = 3.27095725974e-61, No Iterations 36
DILUPBiCGStab:  Solving for ILambda_89_0, Initial residual = 9.40158498784e-16, Final residual = 3.12297989668e-61, No Iterations 51
DILUPBiCGStab:  Solving for ILambda_90_0, Initial residual = 1.13803801349e-15, Final residual = 5.71679430879e-61, No Iterations 61
DILUPBiCGStab:  Solving for ILambda_91_0, Initial residual = 8.98427519531e-16, Final residual = 7.56296375622e-61, No Iterations 66
DILUPBiCGStab:  Solving for ILambda_92_0, Initial residual = 9.18042113129e-16, Final residual = 3.11232049047e-61, No Iterations 67
DILUPBiCGStab:  Solving for ILambda_93_0, Initial residual = 9.03133336005e-16, Final residual = 3.45474332865e-61, No Iterations 58
DILUPBiCGStab:  Solving for ILambda_94_0, Initial residual = 8.07965981945e-16, Final residual = 7.10780174757e-61, No Iterations 50
DILUPBiCGStab:  Solving for ILambda_95_0, Initial residual = 7.06122650167e-16, Final residual = 5.34049721146e-61, No Iterations 37
DILUPBiCGStab:  Solving for ILambda_96_0, Initial residual = 2.28521028734e-16, Final residual = 4.98395855488e-62, No Iterations 19
DILUPBiCGStab:  Solving for ILambda_97_0, Initial residual = 2.34135784332e-16, Final residual = 6.15937670849e-62, No Iterations 19
DILUPBiCGStab:  Solving for ILambda_98_0, Initial residual = 2.33106854365e-16, Final residual = 2.64413079421e-61, No Iterations 22
DILUPBiCGStab:  Solving for ILambda_99_0, Initial residual = 2.40942970166e-16, Final residual = 3.46224583723e-61, No Iterations 20
DILUPBiCGStab:  Solving for ILambda_100_0, Initial residual = 2.59340999392e-16, Final residual = 5.10717042411e-62, No Iterations 19
DILUPBiCGStab:  Solving for ILambda_101_0, Initial residual = 2.46566223699e-16, Final residual = 2.72176830025e-61, No Iterations 19
DILUPBiCGStab:  Solving for ILambda_102_0, Initial residual = 2.5100316551e-16, Final residual = 3.70491696148e-61, No Iterations 20
DILUPBiCGStab:  Solving for ILambda_103_0, Initial residual = 2.42855685371e-16, Final residual = 1.39086780279e-61, No Iterations 18
DILUPBiCGStab:  Solving for ILambda_104_0, Initial residual = 2.27040688461e-16, Final residual = 5.5394357741e-61, No Iterations 33
DILUPBiCGStab:  Solving for ILambda_105_0, Initial residual = 2.3152997755e-16, Final residual = 4.27934423011e-61, No Iterations 45
DILUPBiCGStab:  Solving for ILambda_106_0, Initial residual = 2.32182618957e-16, Final residual = 2.61511416816e-61, No Iterations 53
DILUPBiCGStab:  Solving for ILambda_107_0, Initial residual = 2.40344375626e-16, Final residual = 4.96725898296e-61, No Iterations 57
DILUPBiCGStab:  Solving for ILambda_108_0, Initial residual = 2.57314411859e-16, Final residual = 8.0452329058e-63, No Iterations 58
DILUPBiCGStab:  Solving for ILambda_109_0, Initial residual = 2.75134921424e-16, Final residual = 7.61301835838e-61, No Iterations 55
DILUPBiCGStab:  Solving for ILambda_110_0, Initial residual = 2.4435098201e-16, Final residual = 6.23432718268e-61, No Iterations 47
DILUPBiCGStab:  Solving for ILambda_111_0, Initial residual = 2.41720701175e-16, Final residual = 1.57366130823e-61, No Iterations 32
DILUPBiCGStab:  Solving for ILambda_112_0, Initial residual = 2.41574536694e-16, Final residual = 1.93041927196e-63, No Iterations 2
DILUPBiCGStab:  Solving for ILambda_113_0, Initial residual = 2.55969018793e-16, Final residual = 1.8677271628e-63, No Iterations 2
DILUPBiCGStab:  Solving for ILambda_114_0, Initial residual = 2.57010525704e-16, Final residual = 1.80724216105e-63, No Iterations 2
DILUPBiCGStab:  Solving for ILambda_115_0, Initial residual = 2.53790148265e-16, Final residual = 1.25354548886e-63, No Iterations 2
DILUPBiCGStab:  Solving for ILambda_116_0, Initial residual = 2.46239223162e-16, Final residual = 1.27840372165e-63, No Iterations 2
DILUPBiCGStab:  Solving for ILambda_117_0, Initial residual = 2.3211939432e-16, Final residual = 1.38180890006e-63, No Iterations 2
DILUPBiCGStab:  Solving for ILambda_118_0, Initial residual = 2.36418669584e-16, Final residual = 1.48926641697e-63, No Iterations 2
DILUPBiCGStab:  Solving for ILambda_119_0, Initial residual = 2.32429738906e-16, Final residual = 2.05909075521e-63, No Iterations 2
DILUPBiCGStab:  Solving for ILambda_120_0, Initial residual = 2.41436190312e-16, Final residual = 9.29735183537e-62, No Iterations 32
DILUPBiCGStab:  Solving for ILambda_121_0, Initial residual = 2.5110514073e-16, Final residual = 1.43911826672e-61, No Iterations 45
DILUPBiCGStab:  Solving for ILambda_122_0, Initial residual = 2.50138755564e-16, Final residual = 7.68997367885e-61, No Iterations 53
DILUPBiCGStab:  Solving for ILambda_123_0, Initial residual = 2.61246916249e-16, Final residual = 4.54928133262e-61, No Iterations 59
DILUPBiCGStab:  Solving for ILambda_124_0, Initial residual = 2.40596594337e-16, Final residual = 7.45797889622e-61, No Iterations 58
DILUPBiCGStab:  Solving for ILambda_125_0, Initial residual = 2.31726789725e-16, Final residual = 5.69098583115e-61, No Iterations 54
DILUPBiCGStab:  Solving for ILambda_126_0, Initial residual = 2.30961975577e-16, Final residual = 3.23036412443e-62, No Iterations 45
DILUPBiCGStab:  Solving for ILambda_127_0, Initial residual = 2.26092658835e-16, Final residual = 4.10073469182e-62, No Iterations 34
min/max(T) = 1000, 1000
ExecutionTime = 259.09 s  ClockTime = 260 s

writeObjects writeObjects1.writeObjects write:
    writing object a
    writing object qem
End

