/*---------------------------------------------------------------------------*\
| =========                 |                                                 |
| \\      /  F ield         | OpenFOAM: The Open Source CFD Toolbox           |
|  \\    /   O peration     | Version:  2306                                  |
|   \\  /    A nd           | Website:  www.openfoam.com                      |
|    \\/     M anipulation  |                                                 |
\*---------------------------------------------------------------------------*/
Build  : _fbf00d6b-20230626 OPENFOAM=2306 version=2306
Arch   : "LSB;label=32;scalar=64"
Exec   : fireRADFoam_MaCFP
Date   : Mar 12 2024
Time   : 19:33:37
Host   : pop-os
PID    : 173427
I/O    : uncollated
Case   : /home/rafay/Desktop/Study/Radiative_Heat_Transfer/Local_copy_RHT2324/01_Projects/02_Rafay/Case_1_q1D_SolidAngle/new_case3/th_6-ph_12/tau_10/res_2
nProcs : 1
trapFpe: Floating point exception trapping enabled (FOAM_SIGFPE).
fileModificationChecking : Monitoring run-time modified files using timeStampMaster (fileModificationSkew 5, maxFileModificationPolls 20)
allowSystemOperations : Allowing user-supplied system call operations

// * * * * * * * * * * * * * * * * * * * * * * * * * * * * * * * * * * * * * //
Create time

Create mesh for time = 0


PIMPLE: no residual control data found. Calculations will employ 10 corrector loops

Reading thermophysical properties

Selecting thermodynamics package 
{
    type            hePsiThermo;
    mixture         singleStepReactingMixture;
    transport       sutherland;
    thermo          janaf;
    energy          sensibleEnthalpy;
    equationOfState perfectGas;
    specie          specie;
}

Selecting chemistryReader foamChemistryReader
    elements not defined in "/home/rafay/Desktop/Study/Radiative_Heat_Transfer/Local_copy_RHT2324/01_Projects/02_Rafay/Case_1_q1D_SolidAngle/new_case3/th_6-ph_12/tau_10/res_2/constant/reactions"
Fuel heat of combustion :47168962.4726
stoichiometric air-fuel ratio :14.6914056505
stoichiometric oxygen-fuel ratio :3.42181919285
Maximum products mass concentrations:
    H2O: 0.0818486943001
    CO2: 0.199950099979
    N2: 0.718201205721
Creating component thermo properties:
    multi-component carrier - 6 species
    no liquid components
    no solid components
Creating field rho


Reading field U

Reading/calculating face flux field phi

Selecting radiationModel fvDOM
Selecting absorptionEmissionModel constantAbsorptionEmission
Selecting scatterModel none
Selecting sootModel none
fvDOM : Allocated 288 rays with average orientation:
	I0 : dAve : 	(0.000387488209079 0.00591192763451 0.0163624617374) : omega : 	0.0175372336349 : d : 	(0.0169275754541 0.25826489366 0.965925826289)
	I1 : dAve : 	(0.00115583459655 0.00581077291359 0.0163624617374) : omega : 	0.0175372336349 : d : 	(0.050493090853 0.253845909725 0.965925826289)
	I2 : dAve : 	(0.00190440433361 0.00561019425706 0.0163624617374) : omega : 	0.0175372336349 : d : 	(0.083194655468 0.245083551895 0.965925826289)
	I3 : dAve : 	(0.00262038918453 0.00531362362136 0.0163624617374) : omega : 	0.0175372336349 : d : 	(0.114472736462 0.232127746542 0.965925826289)
	I4 : dAve : 	(0.00329153844998 0.00492613541228 0.0163624617374) : omega : 	0.0175372336349 : d : 	(0.143792157198 0.215200171088 0.965925826289)
	I5 : dAve : 	(0.00390636857998 0.00445435966052 0.0163624617374) : omega : 	0.0175372336349 : d : 	(0.170651254257 0.194590461042 0.965925826289)
	I6 : dAve : 	(0.00445435966052 0.00390636857998 0.0163624617374) : omega : 	0.0175372336349 : d : 	(0.194590461042 0.170651254257 0.965925826289)
	I7 : dAve : 	(0.00492613541228 0.00329153844998 0.0163624617374) : omega : 	0.0175372336349 : d : 	(0.215200171088 0.143792157198 0.965925826289)
	I8 : dAve : 	(0.00531362362136 0.00262038918453 0.0163624617374) : omega : 	0.0175372336349 : d : 	(0.232127746542 0.114472736462 0.965925826289)
	I9 : dAve : 	(0.00561019425706 0.00190440433361 0.0163624617374) : omega : 	0.0175372336349 : d : 	(0.245083551895 0.083194655468 0.965925826289)
	I10 : dAve : 	(0.00581077291359 0.00115583459655 0.0163624617374) : omega : 	0.0175372336349 : d : 	(0.253845909725 0.050493090853 0.965925826289)
	I11 : dAve : 	(0.00591192763451 0.000387488209079 0.0163624617374) : omega : 	0.0175372336349 : d : 	(0.25826489366 0.0169275754541 0.965925826289)
	I12 : dAve : 	(0.00591192763451 -0.000387488209079 0.0163624617374) : omega : 	0.0175372336349 : d : 	(0.25826489366 -0.0169275754541 0.965925826289)
	I13 : dAve : 	(0.00581077291359 -0.00115583459655 0.0163624617374) : omega : 	0.0175372336349 : d : 	(0.253845909725 -0.050493090853 0.965925826289)
	I14 : dAve : 	(0.00561019425706 -0.00190440433361 0.0163624617374) : omega : 	0.0175372336349 : d : 	(0.245083551895 -0.083194655468 0.965925826289)
	I15 : dAve : 	(0.00531362362136 -0.00262038918453 0.0163624617374) : omega : 	0.0175372336349 : d : 	(0.232127746542 -0.114472736462 0.965925826289)
	I16 : dAve : 	(0.00492613541228 -0.00329153844998 0.0163624617374) : omega : 	0.0175372336349 : d : 	(0.215200171088 -0.143792157198 0.965925826289)
	I17 : dAve : 	(0.00445435966052 -0.00390636857998 0.0163624617374) : omega : 	0.0175372336349 : d : 	(0.194590461042 -0.170651254257 0.965925826289)
	I18 : dAve : 	(0.00390636857998 -0.00445435966052 0.0163624617374) : omega : 	0.0175372336349 : d : 	(0.170651254257 -0.194590461042 0.965925826289)
	I19 : dAve : 	(0.00329153844998 -0.00492613541228 0.0163624617374) : omega : 	0.0175372336349 : d : 	(0.143792157198 -0.215200171088 0.965925826289)
	I20 : dAve : 	(0.00262038918453 -0.00531362362136 0.0163624617374) : omega : 	0.0175372336349 : d : 	(0.114472736462 -0.232127746542 0.965925826289)
	I21 : dAve : 	(0.00190440433361 -0.00561019425706 0.0163624617374) : omega : 	0.0175372336349 : d : 	(0.083194655468 -0.245083551895 0.965925826289)
	I22 : dAve : 	(0.00115583459655 -0.00581077291359 0.0163624617374) : omega : 	0.0175372336349 : d : 	(0.050493090853 -0.253845909725 0.965925826289)
	I23 : dAve : 	(0.000387488209079 -0.00591192763451 0.0163624617374) : omega : 	0.0175372336349 : d : 	(0.0169275754541 -0.25826489366 0.965925826289)
	I24 : dAve : 	(-0.000387488209079 -0.00591192763451 0.0163624617374) : omega : 	0.0175372336349 : d : 	(-0.0169275754541 -0.25826489366 0.965925826289)
	I25 : dAve : 	(-0.00115583459655 -0.00581077291359 0.0163624617374) : omega : 	0.0175372336349 : d : 	(-0.050493090853 -0.253845909725 0.965925826289)
	I26 : dAve : 	(-0.00190440433361 -0.00561019425706 0.0163624617374) : omega : 	0.0175372336349 : d : 	(-0.083194655468 -0.245083551895 0.965925826289)
	I27 : dAve : 	(-0.00262038918453 -0.00531362362136 0.0163624617374) : omega : 	0.0175372336349 : d : 	(-0.114472736462 -0.232127746542 0.965925826289)
	I28 : dAve : 	(-0.00329153844998 -0.00492613541228 0.0163624617374) : omega : 	0.0175372336349 : d : 	(-0.143792157198 -0.215200171088 0.965925826289)
	I29 : dAve : 	(-0.00390636857998 -0.00445435966052 0.0163624617374) : omega : 	0.0175372336349 : d : 	(-0.170651254257 -0.194590461042 0.965925826289)
	I30 : dAve : 	(-0.00445435966052 -0.00390636857998 0.0163624617374) : omega : 	0.0175372336349 : d : 	(-0.194590461042 -0.170651254257 0.965925826289)
	I31 : dAve : 	(-0.00492613541228 -0.00329153844998 0.0163624617374) : omega : 	0.0175372336349 : d : 	(-0.215200171088 -0.143792157198 0.965925826289)
	I32 : dAve : 	(-0.00531362362136 -0.00262038918453 0.0163624617374) : omega : 	0.0175372336349 : d : 	(-0.232127746542 -0.114472736462 0.965925826289)
	I33 : dAve : 	(-0.00561019425706 -0.00190440433361 0.0163624617374) : omega : 	0.0175372336349 : d : 	(-0.245083551895 -0.083194655468 0.965925826289)
	I34 : dAve : 	(-0.00581077291359 -0.00115583459655 0.0163624617374) : omega : 	0.0175372336349 : d : 	(-0.253845909725 -0.050493090853 0.965925826289)
	I35 : dAve : 	(-0.00591192763451 -0.000387488209079 0.0163624617374) : omega : 	0.0175372336349 : d : 	(-0.25826489366 -0.0169275754541 0.965925826289)
	I36 : dAve : 	(-0.00591192763451 0.000387488209079 0.0163624617374) : omega : 	0.0175372336349 : d : 	(-0.25826489366 0.0169275754541 0.965925826289)
	I37 : dAve : 	(-0.00581077291359 0.00115583459655 0.0163624617374) : omega : 	0.0175372336349 : d : 	(-0.253845909725 0.050493090853 0.965925826289)
	I38 : dAve : 	(-0.00561019425706 0.00190440433361 0.0163624617374) : omega : 	0.0175372336349 : d : 	(-0.245083551895 0.083194655468 0.965925826289)
	I39 : dAve : 	(-0.00531362362136 0.00262038918453 0.0163624617374) : omega : 	0.0175372336349 : d : 	(-0.232127746542 0.114472736462 0.965925826289)
	I40 : dAve : 	(-0.00492613541228 0.00329153844998 0.0163624617374) : omega : 	0.0175372336349 : d : 	(-0.215200171088 0.143792157198 0.965925826289)
	I41 : dAve : 	(-0.00445435966052 0.00390636857998 0.0163624617374) : omega : 	0.0175372336349 : d : 	(-0.194590461042 0.170651254257 0.965925826289)
	I42 : dAve : 	(-0.00390636857998 0.00445435966052 0.0163624617374) : omega : 	0.0175372336349 : d : 	(-0.170651254257 0.194590461042 0.965925826289)
	I43 : dAve : 	(-0.00329153844998 0.00492613541228 0.0163624617374) : omega : 	0.0175372336349 : d : 	(-0.143792157198 0.215200171088 0.965925826289)
	I44 : dAve : 	(-0.00262038918453 0.00531362362136 0.0163624617374) : omega : 	0.0175372336349 : d : 	(-0.114472736462 0.232127746542 0.965925826289)
	I45 : dAve : 	(-0.00190440433361 0.00561019425706 0.0163624617374) : omega : 	0.0175372336349 : d : 	(-0.083194655468 0.245083551895 0.965925826289)
	I46 : dAve : 	(-0.00115583459655 0.00581077291359 0.0163624617374) : omega : 	0.0175372336349 : d : 	(-0.050493090853 0.253845909725 0.965925826289)
	I47 : dAve : 	(-0.000387488209079 0.00591192763451 0.0163624617374) : omega : 	0.0175372336349 : d : 	(-0.0169275754541 0.25826489366 0.965925826289)
	I48 : dAve : 	(0.00223973005487 0.034171677215 0.0327249234749) : omega : 	0.0479126133149 : d : 	(0.0462469961895 0.70559281129 0.707106781187)
	I49 : dAve : 	(0.00668086776241 0.0335869903436 0.0327249234749) : omega : 	0.0479126133149 : d : 	(0.137949689641 0.693519922661 0.707106781187)
	I50 : dAve : 	(0.0110076939702 0.0324276207555 0.0327249234749) : omega : 	0.0479126133149 : d : 	(0.227292025657 0.669580715876 0.707106781187)
	I51 : dAve : 	(0.0151461754823 0.0307134055855 0.0327249234749) : omega : 	0.0479126133149 : d : 	(0.312745332096 0.634184797399 0.707106781187)
	I52 : dAve : 	(0.0190255017326 0.0284736755306 0.0327249234749) : omega : 	0.0479126133149 : d : 	(0.392847479194 0.58793780121 0.707106781187)
	I53 : dAve : 	(0.0225792963734 0.025746752993 0.0327249234749) : omega : 	0.0479126133149 : d : 	(0.466227897004 0.531631026234 0.707106781187)
	I54 : dAve : 	(0.025746752993 0.0225792963734 0.0327249234749) : omega : 	0.0479126133149 : d : 	(0.531631026234 0.466227897004 0.707106781187)
	I55 : dAve : 	(0.0284736755306 0.0190255017326 0.0327249234749) : omega : 	0.0479126133149 : d : 	(0.58793780121 0.392847479194 0.707106781187)
	I56 : dAve : 	(0.0307134055855 0.0151461754823 0.0327249234749) : omega : 	0.0479126133149 : d : 	(0.634184797399 0.312745332096 0.707106781187)
	I57 : dAve : 	(0.0324276207555 0.0110076939702 0.0327249234749) : omega : 	0.0479126133149 : d : 	(0.669580715876 0.227292025657 0.707106781187)
	I58 : dAve : 	(0.0335869903436 0.00668086776241 0.0327249234749) : omega : 	0.0479126133149 : d : 	(0.693519922661 0.137949689641 0.707106781187)
	I59 : dAve : 	(0.034171677215 0.00223973005487 0.0327249234749) : omega : 	0.0479126133149 : d : 	(0.70559281129 0.0462469961895 0.707106781187)
	I60 : dAve : 	(0.034171677215 -0.00223973005487 0.0327249234749) : omega : 	0.0479126133149 : d : 	(0.70559281129 -0.0462469961895 0.707106781187)
	I61 : dAve : 	(0.0335869903436 -0.00668086776241 0.0327249234749) : omega : 	0.0479126133149 : d : 	(0.693519922661 -0.137949689641 0.707106781187)
	I62 : dAve : 	(0.0324276207555 -0.0110076939702 0.0327249234749) : omega : 	0.0479126133149 : d : 	(0.669580715876 -0.227292025657 0.707106781187)
	I63 : dAve : 	(0.0307134055855 -0.0151461754823 0.0327249234749) : omega : 	0.0479126133149 : d : 	(0.634184797399 -0.312745332096 0.707106781187)
	I64 : dAve : 	(0.0284736755306 -0.0190255017326 0.0327249234749) : omega : 	0.0479126133149 : d : 	(0.58793780121 -0.392847479194 0.707106781187)
	I65 : dAve : 	(0.025746752993 -0.0225792963734 0.0327249234749) : omega : 	0.0479126133149 : d : 	(0.531631026234 -0.466227897004 0.707106781187)
	I66 : dAve : 	(0.0225792963734 -0.025746752993 0.0327249234749) : omega : 	0.0479126133149 : d : 	(0.466227897004 -0.531631026234 0.707106781187)
	I67 : dAve : 	(0.0190255017326 -0.0284736755306 0.0327249234749) : omega : 	0.0479126133149 : d : 	(0.392847479194 -0.58793780121 0.707106781187)
	I68 : dAve : 	(0.0151461754823 -0.0307134055855 0.0327249234749) : omega : 	0.0479126133149 : d : 	(0.312745332096 -0.634184797399 0.707106781187)
	I69 : dAve : 	(0.0110076939702 -0.0324276207555 0.0327249234749) : omega : 	0.0479126133149 : d : 	(0.227292025657 -0.669580715876 0.707106781187)
	I70 : dAve : 	(0.00668086776241 -0.0335869903436 0.0327249234749) : omega : 	0.0479126133149 : d : 	(0.137949689641 -0.693519922661 0.707106781187)
	I71 : dAve : 	(0.00223973005487 -0.034171677215 0.0327249234749) : omega : 	0.0479126133149 : d : 	(0.0462469961895 -0.70559281129 0.707106781187)
	I72 : dAve : 	(-0.00223973005487 -0.034171677215 0.0327249234749) : omega : 	0.0479126133149 : d : 	(-0.0462469961895 -0.70559281129 0.707106781187)
	I73 : dAve : 	(-0.00668086776241 -0.0335869903436 0.0327249234749) : omega : 	0.0479126133149 : d : 	(-0.137949689641 -0.693519922661 0.707106781187)
	I74 : dAve : 	(-0.0110076939702 -0.0324276207555 0.0327249234749) : omega : 	0.0479126133149 : d : 	(-0.227292025657 -0.669580715876 0.707106781187)
	I75 : dAve : 	(-0.0151461754823 -0.0307134055855 0.0327249234749) : omega : 	0.0479126133149 : d : 	(-0.312745332096 -0.634184797399 0.707106781187)
	I76 : dAve : 	(-0.0190255017326 -0.0284736755306 0.0327249234749) : omega : 	0.0479126133149 : d : 	(-0.392847479194 -0.58793780121 0.707106781187)
	I77 : dAve : 	(-0.0225792963734 -0.025746752993 0.0327249234749) : omega : 	0.0479126133149 : d : 	(-0.466227897004 -0.531631026234 0.707106781187)
	I78 : dAve : 	(-0.025746752993 -0.0225792963734 0.0327249234749) : omega : 	0.0479126133149 : d : 	(-0.531631026234 -0.466227897004 0.707106781187)
	I79 : dAve : 	(-0.0284736755306 -0.0190255017326 0.0327249234749) : omega : 	0.0479126133149 : d : 	(-0.58793780121 -0.392847479194 0.707106781187)
	I80 : dAve : 	(-0.0307134055855 -0.0151461754823 0.0327249234749) : omega : 	0.0479126133149 : d : 	(-0.634184797399 -0.312745332096 0.707106781187)
	I81 : dAve : 	(-0.0324276207555 -0.0110076939702 0.0327249234749) : omega : 	0.0479126133149 : d : 	(-0.669580715876 -0.227292025657 0.707106781187)
	I82 : dAve : 	(-0.0335869903436 -0.00668086776241 0.0327249234749) : omega : 	0.0479126133149 : d : 	(-0.693519922661 -0.137949689641 0.707106781187)
	I83 : dAve : 	(-0.034171677215 -0.00223973005487 0.0327249234749) : omega : 	0.0479126133149 : d : 	(-0.70559281129 -0.0462469961895 0.707106781187)
	I84 : dAve : 	(-0.034171677215 0.00223973005487 0.0327249234749) : omega : 	0.0479126133149 : d : 	(-0.70559281129 0.0462469961895 0.707106781187)
	I85 : dAve : 	(-0.0335869903436 0.00668086776241 0.0327249234749) : omega : 	0.0479126133149 : d : 	(-0.693519922661 0.137949689641 0.707106781187)
	I86 : dAve : 	(-0.0324276207555 0.0110076939702 0.0327249234749) : omega : 	0.0479126133149 : d : 	(-0.669580715876 0.227292025657 0.707106781187)
	I87 : dAve : 	(-0.0307134055855 0.0151461754823 0.0327249234749) : omega : 	0.0479126133149 : d : 	(-0.634184797399 0.312745332096 0.707106781187)
	I88 : dAve : 	(-0.0284736755306 0.0190255017326 0.0327249234749) : omega : 	0.0479126133149 : d : 	(-0.58793780121 0.392847479194 0.707106781187)
	I89 : dAve : 	(-0.025746752993 0.0225792963734 0.0327249234749) : omega : 	0.0479126133149 : d : 	(-0.531631026234 0.466227897004 0.707106781187)
	I90 : dAve : 	(-0.0225792963734 0.025746752993 0.0327249234749) : omega : 	0.0479126133149 : d : 	(-0.466227897004 0.531631026234 0.707106781187)
	I91 : dAve : 	(-0.0190255017326 0.0284736755306 0.0327249234749) : omega : 	0.0479126133149 : d : 	(-0.392847479194 0.58793780121 0.707106781187)
	I92 : dAve : 	(-0.0151461754823 0.0307134055855 0.0327249234749) : omega : 	0.0479126133149 : d : 	(-0.312745332096 0.634184797399 0.707106781187)
	I93 : dAve : 	(-0.0110076939702 0.0324276207555 0.0327249234749) : omega : 	0.0479126133149 : d : 	(-0.227292025657 0.669580715876 0.707106781187)
	I94 : dAve : 	(-0.00668086776241 0.0335869903436 0.0327249234749) : omega : 	0.0479126133149 : d : 	(-0.137949689641 0.693519922661 0.707106781187)
	I95 : dAve : 	(-0.00223973005487 0.034171677215 0.0327249234749) : omega : 	0.0479126133149 : d : 	(-0.0462469961895 0.70559281129 0.707106781187)
	I96 : dAve : 	(0.00409197190067 0.0624314267954 0.0163624617374) : omega : 	0.0654498469498 : d : 	(0.0631745716435 0.963857704949 0.258819045103)
	I97 : dAve : 	(0.0122059009283 0.0613632077737 0.0163624617374) : omega : 	0.0654498469498 : d : 	(0.188442780494 0.947365832386 0.258819045103)
	I98 : dAve : 	(0.0201109836069 0.0592450472539 0.0163624617374) : omega : 	0.0654498469498 : d : 	(0.310486681125 0.914664267771 0.258819045103)
	I99 : dAve : 	(0.0276719617802 0.0561131875497 0.0163624617374) : omega : 	0.0654498469498 : d : 	(0.427218068558 0.866312543941 0.258819045103)
	I100 : dAve : 	(0.0347594650153 0.052021215649 0.0163624617374) : omega : 	0.0654498469498 : d : 	(0.536639636391 0.803137972298 0.258819045103)
	I101 : dAve : 	(0.0412522241668 0.0470391463256 0.0163624617374) : omega : 	0.0654498469498 : d : 	(0.636879151261 0.726221487276 0.258819045103)
	I102 : dAve : 	(0.0470391463256 0.0412522241668 0.0163624617374) : omega : 	0.0654498469498 : d : 	(0.726221487276 0.636879151261 0.258819045103)
	I103 : dAve : 	(0.052021215649 0.0347594650153 0.0163624617374) : omega : 	0.0654498469498 : d : 	(0.803137972298 0.536639636391 0.258819045103)
	I104 : dAve : 	(0.0561131875497 0.0276719617802 0.0163624617374) : omega : 	0.0654498469498 : d : 	(0.866312543941 0.427218068558 0.258819045103)
	I105 : dAve : 	(0.0592450472539 0.0201109836069 0.0163624617374) : omega : 	0.0654498469498 : d : 	(0.914664267771 0.310486681125 0.258819045103)
	I106 : dAve : 	(0.0613632077737 0.0122059009283 0.0163624617374) : omega : 	0.0654498469498 : d : 	(0.947365832386 0.188442780494 0.258819045103)
	I107 : dAve : 	(0.0624314267954 0.00409197190067 0.0163624617374) : omega : 	0.0654498469498 : d : 	(0.963857704949 0.0631745716435 0.258819045103)
	I108 : dAve : 	(0.0624314267954 -0.00409197190067 0.0163624617374) : omega : 	0.0654498469498 : d : 	(0.963857704949 -0.0631745716435 0.258819045103)
	I109 : dAve : 	(0.0613632077737 -0.0122059009283 0.0163624617374) : omega : 	0.0654498469498 : d : 	(0.947365832386 -0.188442780494 0.258819045103)
	I110 : dAve : 	(0.0592450472539 -0.0201109836069 0.0163624617374) : omega : 	0.0654498469498 : d : 	(0.914664267771 -0.310486681125 0.258819045103)
	I111 : dAve : 	(0.0561131875497 -0.0276719617802 0.0163624617374) : omega : 	0.0654498469498 : d : 	(0.866312543941 -0.427218068558 0.258819045103)
	I112 : dAve : 	(0.052021215649 -0.0347594650153 0.0163624617374) : omega : 	0.0654498469498 : d : 	(0.803137972298 -0.536639636391 0.258819045103)
	I113 : dAve : 	(0.0470391463256 -0.0412522241668 0.0163624617374) : omega : 	0.0654498469498 : d : 	(0.726221487276 -0.636879151261 0.258819045103)
	I114 : dAve : 	(0.0412522241668 -0.0470391463256 0.0163624617374) : omega : 	0.0654498469498 : d : 	(0.636879151261 -0.726221487276 0.258819045103)
	I115 : dAve : 	(0.0347594650153 -0.052021215649 0.0163624617374) : omega : 	0.0654498469498 : d : 	(0.536639636391 -0.803137972298 0.258819045103)
	I116 : dAve : 	(0.0276719617802 -0.0561131875497 0.0163624617374) : omega : 	0.0654498469498 : d : 	(0.427218068558 -0.866312543941 0.258819045103)
	I117 : dAve : 	(0.0201109836069 -0.0592450472539 0.0163624617374) : omega : 	0.0654498469498 : d : 	(0.310486681125 -0.914664267771 0.258819045103)
	I118 : dAve : 	(0.0122059009283 -0.0613632077737 0.0163624617374) : omega : 	0.0654498469498 : d : 	(0.188442780494 -0.947365832386 0.258819045103)
	I119 : dAve : 	(0.00409197190067 -0.0624314267954 0.0163624617374) : omega : 	0.0654498469498 : d : 	(0.0631745716435 -0.963857704949 0.258819045103)
	I120 : dAve : 	(-0.00409197190067 -0.0624314267954 0.0163624617374) : omega : 	0.0654498469498 : d : 	(-0.0631745716435 -0.963857704949 0.258819045103)
	I121 : dAve : 	(-0.0122059009283 -0.0613632077737 0.0163624617374) : omega : 	0.0654498469498 : d : 	(-0.188442780494 -0.947365832386 0.258819045103)
	I122 : dAve : 	(-0.0201109836069 -0.0592450472539 0.0163624617374) : omega : 	0.0654498469498 : d : 	(-0.310486681125 -0.914664267771 0.258819045103)
	I123 : dAve : 	(-0.0276719617802 -0.0561131875497 0.0163624617374) : omega : 	0.0654498469498 : d : 	(-0.427218068558 -0.866312543941 0.258819045103)
	I124 : dAve : 	(-0.0347594650153 -0.052021215649 0.0163624617374) : omega : 	0.0654498469498 : d : 	(-0.536639636391 -0.803137972298 0.258819045103)
	I125 : dAve : 	(-0.0412522241668 -0.0470391463256 0.0163624617374) : omega : 	0.0654498469498 : d : 	(-0.636879151261 -0.726221487276 0.258819045103)
	I126 : dAve : 	(-0.0470391463256 -0.0412522241668 0.0163624617374) : omega : 	0.0654498469498 : d : 	(-0.726221487276 -0.636879151261 0.258819045103)
	I127 : dAve : 	(-0.052021215649 -0.0347594650153 0.0163624617374) : omega : 	0.0654498469498 : d : 	(-0.803137972298 -0.536639636391 0.258819045103)
	I128 : dAve : 	(-0.0561131875497 -0.0276719617802 0.0163624617374) : omega : 	0.0654498469498 : d : 	(-0.866312543941 -0.427218068558 0.258819045103)
	I129 : dAve : 	(-0.0592450472539 -0.0201109836069 0.0163624617374) : omega : 	0.0654498469498 : d : 	(-0.914664267771 -0.310486681125 0.258819045103)
	I130 : dAve : 	(-0.0613632077737 -0.0122059009283 0.0163624617374) : omega : 	0.0654498469498 : d : 	(-0.947365832386 -0.188442780494 0.258819045103)
	I131 : dAve : 	(-0.0624314267954 -0.00409197190067 0.0163624617374) : omega : 	0.0654498469498 : d : 	(-0.963857704949 -0.0631745716435 0.258819045103)
	I132 : dAve : 	(-0.0624314267954 0.00409197190067 0.0163624617374) : omega : 	0.0654498469498 : d : 	(-0.963857704949 0.0631745716435 0.258819045103)
	I133 : dAve : 	(-0.0613632077737 0.0122059009283 0.0163624617374) : omega : 	0.0654498469498 : d : 	(-0.947365832386 0.188442780494 0.258819045103)
	I134 : dAve : 	(-0.0592450472539 0.0201109836069 0.0163624617374) : omega : 	0.0654498469498 : d : 	(-0.914664267771 0.310486681125 0.258819045103)
	I135 : dAve : 	(-0.0561131875497 0.0276719617802 0.0163624617374) : omega : 	0.0654498469498 : d : 	(-0.866312543941 0.427218068558 0.258819045103)
	I136 : dAve : 	(-0.052021215649 0.0347594650153 0.0163624617374) : omega : 	0.0654498469498 : d : 	(-0.803137972298 0.536639636391 0.258819045103)
	I137 : dAve : 	(-0.0470391463256 0.0412522241668 0.0163624617374) : omega : 	0.0654498469498 : d : 	(-0.726221487276 0.636879151261 0.258819045103)
	I138 : dAve : 	(-0.0412522241668 0.0470391463256 0.0163624617374) : omega : 	0.0654498469498 : d : 	(-0.636879151261 0.726221487276 0.258819045103)
	I139 : dAve : 	(-0.0347594650153 0.052021215649 0.0163624617374) : omega : 	0.0654498469498 : d : 	(-0.536639636391 0.803137972298 0.258819045103)
	I140 : dAve : 	(-0.0276719617802 0.0561131875497 0.0163624617374) : omega : 	0.0654498469498 : d : 	(-0.427218068558 0.866312543941 0.258819045103)
	I141 : dAve : 	(-0.0201109836069 0.0592450472539 0.0163624617374) : omega : 	0.0654498469498 : d : 	(-0.310486681125 0.914664267771 0.258819045103)
	I142 : dAve : 	(-0.0122059009283 0.0613632077737 0.0163624617374) : omega : 	0.0654498469498 : d : 	(-0.188442780494 0.947365832386 0.258819045103)
	I143 : dAve : 	(-0.00409197190067 0.0624314267954 0.0163624617374) : omega : 	0.0654498469498 : d : 	(-0.0631745716435 0.963857704949 0.258819045103)
	I144 : dAve : 	(0.00409197190067 0.0624314267954 -0.0163624617374) : omega : 	0.0654498469498 : d : 	(0.0631745716435 0.963857704949 -0.258819045103)
	I145 : dAve : 	(0.0122059009283 0.0613632077737 -0.0163624617374) : omega : 	0.0654498469498 : d : 	(0.188442780494 0.947365832386 -0.258819045103)
	I146 : dAve : 	(0.0201109836069 0.0592450472539 -0.0163624617374) : omega : 	0.0654498469498 : d : 	(0.310486681125 0.914664267771 -0.258819045103)
	I147 : dAve : 	(0.0276719617802 0.0561131875497 -0.0163624617374) : omega : 	0.0654498469498 : d : 	(0.427218068558 0.866312543941 -0.258819045103)
	I148 : dAve : 	(0.0347594650153 0.052021215649 -0.0163624617374) : omega : 	0.0654498469498 : d : 	(0.536639636391 0.803137972298 -0.258819045103)
	I149 : dAve : 	(0.0412522241668 0.0470391463256 -0.0163624617374) : omega : 	0.0654498469498 : d : 	(0.636879151261 0.726221487276 -0.258819045103)
	I150 : dAve : 	(0.0470391463256 0.0412522241668 -0.0163624617374) : omega : 	0.0654498469498 : d : 	(0.726221487276 0.636879151261 -0.258819045103)
	I151 : dAve : 	(0.052021215649 0.0347594650153 -0.0163624617374) : omega : 	0.0654498469498 : d : 	(0.803137972298 0.536639636391 -0.258819045103)
	I152 : dAve : 	(0.0561131875497 0.0276719617802 -0.0163624617374) : omega : 	0.0654498469498 : d : 	(0.866312543941 0.427218068558 -0.258819045103)
	I153 : dAve : 	(0.0592450472539 0.0201109836069 -0.0163624617374) : omega : 	0.0654498469498 : d : 	(0.914664267771 0.310486681125 -0.258819045103)
	I154 : dAve : 	(0.0613632077737 0.0122059009283 -0.0163624617374) : omega : 	0.0654498469498 : d : 	(0.947365832386 0.188442780494 -0.258819045103)
	I155 : dAve : 	(0.0624314267954 0.00409197190067 -0.0163624617374) : omega : 	0.0654498469498 : d : 	(0.963857704949 0.0631745716435 -0.258819045103)
	I156 : dAve : 	(0.0624314267954 -0.00409197190067 -0.0163624617374) : omega : 	0.0654498469498 : d : 	(0.963857704949 -0.0631745716435 -0.258819045103)
	I157 : dAve : 	(0.0613632077737 -0.0122059009283 -0.0163624617374) : omega : 	0.0654498469498 : d : 	(0.947365832386 -0.188442780494 -0.258819045103)
	I158 : dAve : 	(0.0592450472539 -0.0201109836069 -0.0163624617374) : omega : 	0.0654498469498 : d : 	(0.914664267771 -0.310486681125 -0.258819045103)
	I159 : dAve : 	(0.0561131875497 -0.0276719617802 -0.0163624617374) : omega : 	0.0654498469498 : d : 	(0.866312543941 -0.427218068558 -0.258819045103)
	I160 : dAve : 	(0.052021215649 -0.0347594650153 -0.0163624617374) : omega : 	0.0654498469498 : d : 	(0.803137972298 -0.536639636391 -0.258819045103)
	I161 : dAve : 	(0.0470391463256 -0.0412522241668 -0.0163624617374) : omega : 	0.0654498469498 : d : 	(0.726221487276 -0.636879151261 -0.258819045103)
	I162 : dAve : 	(0.0412522241668 -0.0470391463256 -0.0163624617374) : omega : 	0.0654498469498 : d : 	(0.636879151261 -0.726221487276 -0.258819045103)
	I163 : dAve : 	(0.0347594650153 -0.052021215649 -0.0163624617374) : omega : 	0.0654498469498 : d : 	(0.536639636391 -0.803137972298 -0.258819045103)
	I164 : dAve : 	(0.0276719617802 -0.0561131875497 -0.0163624617374) : omega : 	0.0654498469498 : d : 	(0.427218068558 -0.866312543941 -0.258819045103)
	I165 : dAve : 	(0.0201109836069 -0.0592450472539 -0.0163624617374) : omega : 	0.0654498469498 : d : 	(0.310486681125 -0.914664267771 -0.258819045103)
	I166 : dAve : 	(0.0122059009283 -0.0613632077737 -0.0163624617374) : omega : 	0.0654498469498 : d : 	(0.188442780494 -0.947365832386 -0.258819045103)
	I167 : dAve : 	(0.00409197190067 -0.0624314267954 -0.0163624617374) : omega : 	0.0654498469498 : d : 	(0.0631745716435 -0.963857704949 -0.258819045103)
	I168 : dAve : 	(-0.00409197190067 -0.0624314267954 -0.0163624617374) : omega : 	0.0654498469498 : d : 	(-0.0631745716435 -0.963857704949 -0.258819045103)
	I169 : dAve : 	(-0.0122059009283 -0.0613632077737 -0.0163624617374) : omega : 	0.0654498469498 : d : 	(-0.188442780494 -0.947365832386 -0.258819045103)
	I170 : dAve : 	(-0.0201109836069 -0.0592450472539 -0.0163624617374) : omega : 	0.0654498469498 : d : 	(-0.310486681125 -0.914664267771 -0.258819045103)
	I171 : dAve : 	(-0.0276719617802 -0.0561131875497 -0.0163624617374) : omega : 	0.0654498469498 : d : 	(-0.427218068558 -0.866312543941 -0.258819045103)
	I172 : dAve : 	(-0.0347594650153 -0.052021215649 -0.0163624617374) : omega : 	0.0654498469498 : d : 	(-0.536639636391 -0.803137972298 -0.258819045103)
	I173 : dAve : 	(-0.0412522241668 -0.0470391463256 -0.0163624617374) : omega : 	0.0654498469498 : d : 	(-0.636879151261 -0.726221487276 -0.258819045103)
	I174 : dAve : 	(-0.0470391463256 -0.0412522241668 -0.0163624617374) : omega : 	0.0654498469498 : d : 	(-0.726221487276 -0.636879151261 -0.258819045103)
	I175 : dAve : 	(-0.052021215649 -0.0347594650153 -0.0163624617374) : omega : 	0.0654498469498 : d : 	(-0.803137972298 -0.536639636391 -0.258819045103)
	I176 : dAve : 	(-0.0561131875497 -0.0276719617802 -0.0163624617374) : omega : 	0.0654498469498 : d : 	(-0.866312543941 -0.427218068558 -0.258819045103)
	I177 : dAve : 	(-0.0592450472539 -0.0201109836069 -0.0163624617374) : omega : 	0.0654498469498 : d : 	(-0.914664267771 -0.310486681125 -0.258819045103)
	I178 : dAve : 	(-0.0613632077737 -0.0122059009283 -0.0163624617374) : omega : 	0.0654498469498 : d : 	(-0.947365832386 -0.188442780494 -0.258819045103)
	I179 : dAve : 	(-0.0624314267954 -0.00409197190067 -0.0163624617374) : omega : 	0.0654498469498 : d : 	(-0.963857704949 -0.0631745716435 -0.258819045103)
	I180 : dAve : 	(-0.0624314267954 0.00409197190067 -0.0163624617374) : omega : 	0.0654498469498 : d : 	(-0.963857704949 0.0631745716435 -0.258819045103)
	I181 : dAve : 	(-0.0613632077737 0.0122059009283 -0.0163624617374) : omega : 	0.0654498469498 : d : 	(-0.947365832386 0.188442780494 -0.258819045103)
	I182 : dAve : 	(-0.0592450472539 0.0201109836069 -0.0163624617374) : omega : 	0.0654498469498 : d : 	(-0.914664267771 0.310486681125 -0.258819045103)
	I183 : dAve : 	(-0.0561131875497 0.0276719617802 -0.0163624617374) : omega : 	0.0654498469498 : d : 	(-0.866312543941 0.427218068558 -0.258819045103)
	I184 : dAve : 	(-0.052021215649 0.0347594650153 -0.0163624617374) : omega : 	0.0654498469498 : d : 	(-0.803137972298 0.536639636391 -0.258819045103)
	I185 : dAve : 	(-0.0470391463256 0.0412522241668 -0.0163624617374) : omega : 	0.0654498469498 : d : 	(-0.726221487276 0.636879151261 -0.258819045103)
	I186 : dAve : 	(-0.0412522241668 0.0470391463256 -0.0163624617374) : omega : 	0.0654498469498 : d : 	(-0.636879151261 0.726221487276 -0.258819045103)
	I187 : dAve : 	(-0.0347594650153 0.052021215649 -0.0163624617374) : omega : 	0.0654498469498 : d : 	(-0.536639636391 0.803137972298 -0.258819045103)
	I188 : dAve : 	(-0.0276719617802 0.0561131875497 -0.0163624617374) : omega : 	0.0654498469498 : d : 	(-0.427218068558 0.866312543941 -0.258819045103)
	I189 : dAve : 	(-0.0201109836069 0.0592450472539 -0.0163624617374) : omega : 	0.0654498469498 : d : 	(-0.310486681125 0.914664267771 -0.258819045103)
	I190 : dAve : 	(-0.0122059009283 0.0613632077737 -0.0163624617374) : omega : 	0.0654498469498 : d : 	(-0.188442780494 0.947365832386 -0.258819045103)
	I191 : dAve : 	(-0.00409197190067 0.0624314267954 -0.0163624617374) : omega : 	0.0654498469498 : d : 	(-0.0631745716435 0.963857704949 -0.258819045103)
	I192 : dAve : 	(0.00223973005487 0.034171677215 -0.0327249234749) : omega : 	0.0479126133149 : d : 	(0.0462469961895 0.70559281129 -0.707106781187)
	I193 : dAve : 	(0.00668086776241 0.0335869903436 -0.0327249234749) : omega : 	0.0479126133149 : d : 	(0.137949689641 0.693519922661 -0.707106781187)
	I194 : dAve : 	(0.0110076939702 0.0324276207555 -0.0327249234749) : omega : 	0.0479126133149 : d : 	(0.227292025657 0.669580715876 -0.707106781187)
	I195 : dAve : 	(0.0151461754823 0.0307134055855 -0.0327249234749) : omega : 	0.0479126133149 : d : 	(0.312745332096 0.634184797399 -0.707106781187)
	I196 : dAve : 	(0.0190255017326 0.0284736755306 -0.0327249234749) : omega : 	0.0479126133149 : d : 	(0.392847479194 0.58793780121 -0.707106781187)
	I197 : dAve : 	(0.0225792963734 0.025746752993 -0.0327249234749) : omega : 	0.0479126133149 : d : 	(0.466227897004 0.531631026234 -0.707106781187)
	I198 : dAve : 	(0.025746752993 0.0225792963734 -0.0327249234749) : omega : 	0.0479126133149 : d : 	(0.531631026234 0.466227897004 -0.707106781187)
	I199 : dAve : 	(0.0284736755306 0.0190255017326 -0.0327249234749) : omega : 	0.0479126133149 : d : 	(0.58793780121 0.392847479194 -0.707106781187)
	I200 : dAve : 	(0.0307134055855 0.0151461754823 -0.0327249234749) : omega : 	0.0479126133149 : d : 	(0.634184797399 0.312745332096 -0.707106781187)
	I201 : dAve : 	(0.0324276207555 0.0110076939702 -0.0327249234749) : omega : 	0.0479126133149 : d : 	(0.669580715876 0.227292025657 -0.707106781187)
	I202 : dAve : 	(0.0335869903436 0.00668086776241 -0.0327249234749) : omega : 	0.0479126133149 : d : 	(0.693519922661 0.137949689641 -0.707106781187)
	I203 : dAve : 	(0.034171677215 0.00223973005487 -0.0327249234749) : omega : 	0.0479126133149 : d : 	(0.70559281129 0.0462469961895 -0.707106781187)
	I204 : dAve : 	(0.034171677215 -0.00223973005487 -0.0327249234749) : omega : 	0.0479126133149 : d : 	(0.70559281129 -0.0462469961895 -0.707106781187)
	I205 : dAve : 	(0.0335869903436 -0.00668086776241 -0.0327249234749) : omega : 	0.0479126133149 : d : 	(0.693519922661 -0.137949689641 -0.707106781187)
	I206 : dAve : 	(0.0324276207555 -0.0110076939702 -0.0327249234749) : omega : 	0.0479126133149 : d : 	(0.669580715876 -0.227292025657 -0.707106781187)
	I207 : dAve : 	(0.0307134055855 -0.0151461754823 -0.0327249234749) : omega : 	0.0479126133149 : d : 	(0.634184797399 -0.312745332096 -0.707106781187)
	I208 : dAve : 	(0.0284736755306 -0.0190255017326 -0.0327249234749) : omega : 	0.0479126133149 : d : 	(0.58793780121 -0.392847479194 -0.707106781187)
	I209 : dAve : 	(0.025746752993 -0.0225792963734 -0.0327249234749) : omega : 	0.0479126133149 : d : 	(0.531631026234 -0.466227897004 -0.707106781187)
	I210 : dAve : 	(0.0225792963734 -0.025746752993 -0.0327249234749) : omega : 	0.0479126133149 : d : 	(0.466227897004 -0.531631026234 -0.707106781187)
	I211 : dAve : 	(0.0190255017326 -0.0284736755306 -0.0327249234749) : omega : 	0.0479126133149 : d : 	(0.392847479194 -0.58793780121 -0.707106781187)
	I212 : dAve : 	(0.0151461754823 -0.0307134055855 -0.0327249234749) : omega : 	0.0479126133149 : d : 	(0.312745332096 -0.634184797399 -0.707106781187)
	I213 : dAve : 	(0.0110076939702 -0.0324276207555 -0.0327249234749) : omega : 	0.0479126133149 : d : 	(0.227292025657 -0.669580715876 -0.707106781187)
	I214 : dAve : 	(0.00668086776241 -0.0335869903436 -0.0327249234749) : omega : 	0.0479126133149 : d : 	(0.137949689641 -0.693519922661 -0.707106781187)
	I215 : dAve : 	(0.00223973005487 -0.034171677215 -0.0327249234749) : omega : 	0.0479126133149 : d : 	(0.0462469961895 -0.70559281129 -0.707106781187)
	I216 : dAve : 	(-0.00223973005487 -0.034171677215 -0.0327249234749) : omega : 	0.0479126133149 : d : 	(-0.0462469961895 -0.70559281129 -0.707106781187)
	I217 : dAve : 	(-0.00668086776241 -0.0335869903436 -0.0327249234749) : omega : 	0.0479126133149 : d : 	(-0.137949689641 -0.693519922661 -0.707106781187)
	I218 : dAve : 	(-0.0110076939702 -0.0324276207555 -0.0327249234749) : omega : 	0.0479126133149 : d : 	(-0.227292025657 -0.669580715876 -0.707106781187)
	I219 : dAve : 	(-0.0151461754823 -0.0307134055855 -0.0327249234749) : omega : 	0.0479126133149 : d : 	(-0.312745332096 -0.634184797399 -0.707106781187)
	I220 : dAve : 	(-0.0190255017326 -0.0284736755306 -0.0327249234749) : omega : 	0.0479126133149 : d : 	(-0.392847479194 -0.58793780121 -0.707106781187)
	I221 : dAve : 	(-0.0225792963734 -0.025746752993 -0.0327249234749) : omega : 	0.0479126133149 : d : 	(-0.466227897004 -0.531631026234 -0.707106781187)
	I222 : dAve : 	(-0.025746752993 -0.0225792963734 -0.0327249234749) : omega : 	0.0479126133149 : d : 	(-0.531631026234 -0.466227897004 -0.707106781187)
	I223 : dAve : 	(-0.0284736755306 -0.0190255017326 -0.0327249234749) : omega : 	0.0479126133149 : d : 	(-0.58793780121 -0.392847479194 -0.707106781187)
	I224 : dAve : 	(-0.0307134055855 -0.0151461754823 -0.0327249234749) : omega : 	0.0479126133149 : d : 	(-0.634184797399 -0.312745332096 -0.707106781187)
	I225 : dAve : 	(-0.0324276207555 -0.0110076939702 -0.0327249234749) : omega : 	0.0479126133149 : d : 	(-0.669580715876 -0.227292025657 -0.707106781187)
	I226 : dAve : 	(-0.0335869903436 -0.00668086776241 -0.0327249234749) : omega : 	0.0479126133149 : d : 	(-0.693519922661 -0.137949689641 -0.707106781187)
	I227 : dAve : 	(-0.034171677215 -0.00223973005487 -0.0327249234749) : omega : 	0.0479126133149 : d : 	(-0.70559281129 -0.0462469961895 -0.707106781187)
	I228 : dAve : 	(-0.034171677215 0.00223973005487 -0.0327249234749) : omega : 	0.0479126133149 : d : 	(-0.70559281129 0.0462469961895 -0.707106781187)
	I229 : dAve : 	(-0.0335869903436 0.00668086776241 -0.0327249234749) : omega : 	0.0479126133149 : d : 	(-0.693519922661 0.137949689641 -0.707106781187)
	I230 : dAve : 	(-0.0324276207555 0.0110076939702 -0.0327249234749) : omega : 	0.0479126133149 : d : 	(-0.669580715876 0.227292025657 -0.707106781187)
	I231 : dAve : 	(-0.0307134055855 0.0151461754823 -0.0327249234749) : omega : 	0.0479126133149 : d : 	(-0.634184797399 0.312745332096 -0.707106781187)
	I232 : dAve : 	(-0.0284736755306 0.0190255017326 -0.0327249234749) : omega : 	0.0479126133149 : d : 	(-0.58793780121 0.392847479194 -0.707106781187)
	I233 : dAve : 	(-0.025746752993 0.0225792963734 -0.0327249234749) : omega : 	0.0479126133149 : d : 	(-0.531631026234 0.466227897004 -0.707106781187)
	I234 : dAve : 	(-0.0225792963734 0.025746752993 -0.0327249234749) : omega : 	0.0479126133149 : d : 	(-0.466227897004 0.531631026234 -0.707106781187)
	I235 : dAve : 	(-0.0190255017326 0.0284736755306 -0.0327249234749) : omega : 	0.0479126133149 : d : 	(-0.392847479194 0.58793780121 -0.707106781187)
	I236 : dAve : 	(-0.0151461754823 0.0307134055855 -0.0327249234749) : omega : 	0.0479126133149 : d : 	(-0.312745332096 0.634184797399 -0.707106781187)
	I237 : dAve : 	(-0.0110076939702 0.0324276207555 -0.0327249234749) : omega : 	0.0479126133149 : d : 	(-0.227292025657 0.669580715876 -0.707106781187)
	I238 : dAve : 	(-0.00668086776241 0.0335869903436 -0.0327249234749) : omega : 	0.0479126133149 : d : 	(-0.137949689641 0.693519922661 -0.707106781187)
	I239 : dAve : 	(-0.00223973005487 0.034171677215 -0.0327249234749) : omega : 	0.0479126133149 : d : 	(-0.0462469961895 0.70559281129 -0.707106781187)
	I240 : dAve : 	(0.000387488209079 0.00591192763451 -0.0163624617374) : omega : 	0.0175372336349 : d : 	(0.0169275754541 0.25826489366 -0.965925826289)
	I241 : dAve : 	(0.00115583459655 0.00581077291359 -0.0163624617374) : omega : 	0.0175372336349 : d : 	(0.050493090853 0.253845909725 -0.965925826289)
	I242 : dAve : 	(0.00190440433361 0.00561019425706 -0.0163624617374) : omega : 	0.0175372336349 : d : 	(0.083194655468 0.245083551895 -0.965925826289)
	I243 : dAve : 	(0.00262038918453 0.00531362362136 -0.0163624617374) : omega : 	0.0175372336349 : d : 	(0.114472736462 0.232127746542 -0.965925826289)
	I244 : dAve : 	(0.00329153844998 0.00492613541228 -0.0163624617374) : omega : 	0.0175372336349 : d : 	(0.143792157198 0.215200171088 -0.965925826289)
	I245 : dAve : 	(0.00390636857998 0.00445435966052 -0.0163624617374) : omega : 	0.0175372336349 : d : 	(0.170651254257 0.194590461042 -0.965925826289)
	I246 : dAve : 	(0.00445435966052 0.00390636857998 -0.0163624617374) : omega : 	0.0175372336349 : d : 	(0.194590461042 0.170651254257 -0.965925826289)
	I247 : dAve : 	(0.00492613541228 0.00329153844998 -0.0163624617374) : omega : 	0.0175372336349 : d : 	(0.215200171088 0.143792157198 -0.965925826289)
	I248 : dAve : 	(0.00531362362136 0.00262038918453 -0.0163624617374) : omega : 	0.0175372336349 : d : 	(0.232127746542 0.114472736462 -0.965925826289)
	I249 : dAve : 	(0.00561019425706 0.00190440433361 -0.0163624617374) : omega : 	0.0175372336349 : d : 	(0.245083551895 0.083194655468 -0.965925826289)
	I250 : dAve : 	(0.00581077291359 0.00115583459655 -0.0163624617374) : omega : 	0.0175372336349 : d : 	(0.253845909725 0.050493090853 -0.965925826289)
	I251 : dAve : 	(0.00591192763451 0.000387488209079 -0.0163624617374) : omega : 	0.0175372336349 : d : 	(0.25826489366 0.0169275754541 -0.965925826289)
	I252 : dAve : 	(0.00591192763451 -0.000387488209079 -0.0163624617374) : omega : 	0.0175372336349 : d : 	(0.25826489366 -0.0169275754541 -0.965925826289)
	I253 : dAve : 	(0.00581077291359 -0.00115583459655 -0.0163624617374) : omega : 	0.0175372336349 : d : 	(0.253845909725 -0.050493090853 -0.965925826289)
	I254 : dAve : 	(0.00561019425706 -0.00190440433361 -0.0163624617374) : omega : 	0.0175372336349 : d : 	(0.245083551895 -0.083194655468 -0.965925826289)
	I255 : dAve : 	(0.00531362362136 -0.00262038918453 -0.0163624617374) : omega : 	0.0175372336349 : d : 	(0.232127746542 -0.114472736462 -0.965925826289)
	I256 : dAve : 	(0.00492613541228 -0.00329153844998 -0.0163624617374) : omega : 	0.0175372336349 : d : 	(0.215200171088 -0.143792157198 -0.965925826289)
	I257 : dAve : 	(0.00445435966052 -0.00390636857998 -0.0163624617374) : omega : 	0.0175372336349 : d : 	(0.194590461042 -0.170651254257 -0.965925826289)
	I258 : dAve : 	(0.00390636857998 -0.00445435966052 -0.0163624617374) : omega : 	0.0175372336349 : d : 	(0.170651254257 -0.194590461042 -0.965925826289)
	I259 : dAve : 	(0.00329153844998 -0.00492613541228 -0.0163624617374) : omega : 	0.0175372336349 : d : 	(0.143792157198 -0.215200171088 -0.965925826289)
	I260 : dAve : 	(0.00262038918453 -0.00531362362136 -0.0163624617374) : omega : 	0.0175372336349 : d : 	(0.114472736462 -0.232127746542 -0.965925826289)
	I261 : dAve : 	(0.00190440433361 -0.00561019425706 -0.0163624617374) : omega : 	0.0175372336349 : d : 	(0.083194655468 -0.245083551895 -0.965925826289)
	I262 : dAve : 	(0.00115583459655 -0.00581077291359 -0.0163624617374) : omega : 	0.0175372336349 : d : 	(0.050493090853 -0.253845909725 -0.965925826289)
	I263 : dAve : 	(0.000387488209079 -0.00591192763451 -0.0163624617374) : omega : 	0.0175372336349 : d : 	(0.0169275754541 -0.25826489366 -0.965925826289)
	I264 : dAve : 	(-0.000387488209079 -0.00591192763451 -0.0163624617374) : omega : 	0.0175372336349 : d : 	(-0.0169275754541 -0.25826489366 -0.965925826289)
	I265 : dAve : 	(-0.00115583459655 -0.00581077291359 -0.0163624617374) : omega : 	0.0175372336349 : d : 	(-0.050493090853 -0.253845909725 -0.965925826289)
	I266 : dAve : 	(-0.00190440433361 -0.00561019425706 -0.0163624617374) : omega : 	0.0175372336349 : d : 	(-0.083194655468 -0.245083551895 -0.965925826289)
	I267 : dAve : 	(-0.00262038918453 -0.00531362362136 -0.0163624617374) : omega : 	0.0175372336349 : d : 	(-0.114472736462 -0.232127746542 -0.965925826289)
	I268 : dAve : 	(-0.00329153844998 -0.00492613541228 -0.0163624617374) : omega : 	0.0175372336349 : d : 	(-0.143792157198 -0.215200171088 -0.965925826289)
	I269 : dAve : 	(-0.00390636857998 -0.00445435966052 -0.0163624617374) : omega : 	0.0175372336349 : d : 	(-0.170651254257 -0.194590461042 -0.965925826289)
	I270 : dAve : 	(-0.00445435966052 -0.00390636857998 -0.0163624617374) : omega : 	0.0175372336349 : d : 	(-0.194590461042 -0.170651254257 -0.965925826289)
	I271 : dAve : 	(-0.00492613541228 -0.00329153844998 -0.0163624617374) : omega : 	0.0175372336349 : d : 	(-0.215200171088 -0.143792157198 -0.965925826289)
	I272 : dAve : 	(-0.00531362362136 -0.00262038918453 -0.0163624617374) : omega : 	0.0175372336349 : d : 	(-0.232127746542 -0.114472736462 -0.965925826289)
	I273 : dAve : 	(-0.00561019425706 -0.00190440433361 -0.0163624617374) : omega : 	0.0175372336349 : d : 	(-0.245083551895 -0.083194655468 -0.965925826289)
	I274 : dAve : 	(-0.00581077291359 -0.00115583459655 -0.0163624617374) : omega : 	0.0175372336349 : d : 	(-0.253845909725 -0.050493090853 -0.965925826289)
	I275 : dAve : 	(-0.00591192763451 -0.000387488209079 -0.0163624617374) : omega : 	0.0175372336349 : d : 	(-0.25826489366 -0.0169275754541 -0.965925826289)
	I276 : dAve : 	(-0.00591192763451 0.000387488209079 -0.0163624617374) : omega : 	0.0175372336349 : d : 	(-0.25826489366 0.0169275754541 -0.965925826289)
	I277 : dAve : 	(-0.00581077291359 0.00115583459655 -0.0163624617374) : omega : 	0.0175372336349 : d : 	(-0.253845909725 0.050493090853 -0.965925826289)
	I278 : dAve : 	(-0.00561019425706 0.00190440433361 -0.0163624617374) : omega : 	0.0175372336349 : d : 	(-0.245083551895 0.083194655468 -0.965925826289)
	I279 : dAve : 	(-0.00531362362136 0.00262038918453 -0.0163624617374) : omega : 	0.0175372336349 : d : 	(-0.232127746542 0.114472736462 -0.965925826289)
	I280 : dAve : 	(-0.00492613541228 0.00329153844998 -0.0163624617374) : omega : 	0.0175372336349 : d : 	(-0.215200171088 0.143792157198 -0.965925826289)
	I281 : dAve : 	(-0.00445435966052 0.00390636857998 -0.0163624617374) : omega : 	0.0175372336349 : d : 	(-0.194590461042 0.170651254257 -0.965925826289)
	I282 : dAve : 	(-0.00390636857998 0.00445435966052 -0.0163624617374) : omega : 	0.0175372336349 : d : 	(-0.170651254257 0.194590461042 -0.965925826289)
	I283 : dAve : 	(-0.00329153844998 0.00492613541228 -0.0163624617374) : omega : 	0.0175372336349 : d : 	(-0.143792157198 0.215200171088 -0.965925826289)
	I284 : dAve : 	(-0.00262038918453 0.00531362362136 -0.0163624617374) : omega : 	0.0175372336349 : d : 	(-0.114472736462 0.232127746542 -0.965925826289)
	I285 : dAve : 	(-0.00190440433361 0.00561019425706 -0.0163624617374) : omega : 	0.0175372336349 : d : 	(-0.083194655468 0.245083551895 -0.965925826289)
	I286 : dAve : 	(-0.00115583459655 0.00581077291359 -0.0163624617374) : omega : 	0.0175372336349 : d : 	(-0.050493090853 0.253845909725 -0.965925826289)
	I287 : dAve : 	(-0.000387488209079 0.00591192763451 -0.0163624617374) : omega : 	0.0175372336349 : d : 	(-0.0169275754541 0.25826489366 -0.965925826289)
Total omega : 12.5663706144

Courant Number mean: 0 max: 0

Starting time loop

Sampled set:
    data -> csv

Sampled set:
    data -> csv

Sampled surface:
    yNormal -> ensight
        sampledCuttingPlane: yNormal : plane:(0 1 0) (0 0 0) offsets:(0)

Sampled surface:
    zNormal -> ensight
        sampledCuttingPlane: zNormal : plane:(0 0 1) (0 0 0) offsets:(0)

Sampled surface:
    patchAll -> ensight
        sampledPatch: patchAll : patches:(".*WW.*")

deltaT = 1
Time = 1

PIMPLE: iteration 1
Radiation solver iter: 0
DILUPBiCGStab:  Solving for ILambda_0_0, Initial residual = 1, Final residual = 7.18635690894e-64, No Iterations 2
DILUPBiCGStab:  Solving for ILambda_1_0, Initial residual = 1, Final residual = 3.67805185484e-64, No Iterations 2
DILUPBiCGStab:  Solving for ILambda_2_0, Initial residual = 1, Final residual = 1.07780876912e-63, No Iterations 2
DILUPBiCGStab:  Solving for ILambda_3_0, Initial residual = 1, Final residual = 3.79542550014e-64, No Iterations 2
DILUPBiCGStab:  Solving for ILambda_4_0, Initial residual = 1, Final residual = 1.82876079693e-64, No Iterations 2
DILUPBiCGStab:  Solving for ILambda_5_0, Initial residual = 1, Final residual = 1.2559912615e-63, No Iterations 2
DILUPBiCGStab:  Solving for ILambda_6_0, Initial residual = 1, Final residual = 1.87457603052e-63, No Iterations 2
DILUPBiCGStab:  Solving for ILambda_7_0, Initial residual = 1, Final residual = 1.82520782546e-64, No Iterations 2
DILUPBiCGStab:  Solving for ILambda_8_0, Initial residual = 1, Final residual = 5.73964926888e-64, No Iterations 2
DILUPBiCGStab:  Solving for ILambda_9_0, Initial residual = 1, Final residual = 1.09384597731e-63, No Iterations 2
DILUPBiCGStab:  Solving for ILambda_10_0, Initial residual = 1, Final residual = 1.0407258075e-63, No Iterations 2
DILUPBiCGStab:  Solving for ILambda_11_0, Initial residual = 1, Final residual = 1.03229188363e-63, No Iterations 2
DILUPBiCGStab:  Solving for ILambda_12_0, Initial residual = 1, Final residual = 4.75434066009e-61, No Iterations 12
DILUPBiCGStab:  Solving for ILambda_13_0, Initial residual = 1, Final residual = 1.23605903108e-61, No Iterations 14
DILUPBiCGStab:  Solving for ILambda_14_0, Initial residual = 1, Final residual = 3.54709782161e-61, No Iterations 16
DILUPBiCGStab:  Solving for ILambda_15_0, Initial residual = 1, Final residual = 6.96796782652e-61, No Iterations 17
DILUPBiCGStab:  Solving for ILambda_16_0, Initial residual = 1, Final residual = 2.3734045562e-61, No Iterations 17
DILUPBiCGStab:  Solving for ILambda_17_0, Initial residual = 1, Final residual = 2.88109568578e-61, No Iterations 18
DILUPBiCGStab:  Solving for ILambda_18_0, Initial residual = 1, Final residual = 1.4171231904e-61, No Iterations 18
DILUPBiCGStab:  Solving for ILambda_19_0, Initial residual = 1, Final residual = 1.62262668762e-61, No Iterations 18
DILUPBiCGStab:  Solving for ILambda_20_0, Initial residual = 1, Final residual = 6.5116740421e-62, No Iterations 17
DILUPBiCGStab:  Solving for ILambda_21_0, Initial residual = 1, Final residual = 2.08062803117e-61, No Iterations 16
DILUPBiCGStab:  Solving for ILambda_22_0, Initial residual = 1, Final residual = 6.44171971136e-62, No Iterations 15
DILUPBiCGStab:  Solving for ILambda_23_0, Initial residual = 1, Final residual = 9.92893078232e-62, No Iterations 14
DILUPBiCGStab:  Solving for ILambda_24_0, Initial residual = 1, Final residual = 3.4686033674e-62, No Iterations 14
DILUPBiCGStab:  Solving for ILambda_25_0, Initial residual = 1, Final residual = 6.23224832306e-61, No Iterations 13
DILUPBiCGStab:  Solving for ILambda_26_0, Initial residual = 1, Final residual = 2.77939656828e-62, No Iterations 14
DILUPBiCGStab:  Solving for ILambda_27_0, Initial residual = 1, Final residual = 1.77316194789e-62, No Iterations 14
DILUPBiCGStab:  Solving for ILambda_28_0, Initial residual = 1, Final residual = 7.98442956037e-62, No Iterations 14
DILUPBiCGStab:  Solving for ILambda_29_0, Initial residual = 1, Final residual = 5.87004008154e-62, No Iterations 14
DILUPBiCGStab:  Solving for ILambda_30_0, Initial residual = 1, Final residual = 1.15794817656e-63, No Iterations 14
DILUPBiCGStab:  Solving for ILambda_31_0, Initial residual = 1, Final residual = 4.99227926536e-61, No Iterations 14
DILUPBiCGStab:  Solving for ILambda_32_0, Initial residual = 1, Final residual = 5.10534210731e-63, No Iterations 14
DILUPBiCGStab:  Solving for ILambda_33_0, Initial residual = 1, Final residual = 7.85283595901e-63, No Iterations 14
DILUPBiCGStab:  Solving for ILambda_34_0, Initial residual = 1, Final residual = 1.16627432632e-61, No Iterations 14
DILUPBiCGStab:  Solving for ILambda_35_0, Initial residual = 1, Final residual = 3.23135075829e-61, No Iterations 14
DILUPBiCGStab:  Solving for ILambda_36_0, Initial residual = 1, Final residual = 8.86440640623e-62, No Iterations 14
DILUPBiCGStab:  Solving for ILambda_37_0, Initial residual = 1, Final residual = 5.05780665444e-62, No Iterations 15
DILUPBiCGStab:  Solving for ILambda_38_0, Initial residual = 1, Final residual = 4.56984922518e-63, No Iterations 17
DILUPBiCGStab:  Solving for ILambda_39_0, Initial residual = 1, Final residual = 4.33539137357e-62, No Iterations 17
DILUPBiCGStab:  Solving for ILambda_40_0, Initial residual = 1, Final residual = 7.54386229426e-62, No Iterations 18
DILUPBiCGStab:  Solving for ILambda_41_0, Initial residual = 1, Final residual = 1.35154555127e-61, No Iterations 18
DILUPBiCGStab:  Solving for ILambda_42_0, Initial residual = 1, Final residual = 1.68340989942e-61, No Iterations 18
DILUPBiCGStab:  Solving for ILambda_43_0, Initial residual = 1, Final residual = 1.72082136466e-61, No Iterations 17
DILUPBiCGStab:  Solving for ILambda_44_0, Initial residual = 1, Final residual = 8.30953709642e-62, No Iterations 17
DILUPBiCGStab:  Solving for ILambda_45_0, Initial residual = 1, Final residual = 3.42752301281e-61, No Iterations 16
DILUPBiCGStab:  Solving for ILambda_46_0, Initial residual = 1, Final residual = 1.14780367148e-61, No Iterations 14
DILUPBiCGStab:  Solving for ILambda_47_0, Initial residual = 1, Final residual = 8.75789105494e-61, No Iterations 12
DILUPBiCGStab:  Solving for ILambda_48_0, Initial residual = 1, Final residual = 3.05730563752e-64, No Iterations 2
DILUPBiCGStab:  Solving for ILambda_49_0, Initial residual = 1, Final residual = 2.74013405769e-64, No Iterations 2
DILUPBiCGStab:  Solving for ILambda_50_0, Initial residual = 1, Final residual = 2.87759766272e-64, No Iterations 2
DILUPBiCGStab:  Solving for ILambda_51_0, Initial residual = 1, Final residual = 2.63209908405e-64, No Iterations 2
DILUPBiCGStab:  Solving for ILambda_52_0, Initial residual = 1, Final residual = 2.95767783821e-64, No Iterations 2
DILUPBiCGStab:  Solving for ILambda_53_0, Initial residual = 1, Final residual = 5.85153963857e-64, No Iterations 2
DILUPBiCGStab:  Solving for ILambda_54_0, Initial residual = 1, Final residual = 5.10139845547e-64, No Iterations 2
DILUPBiCGStab:  Solving for ILambda_55_0, Initial residual = 1, Final residual = 2.68379672516e-64, No Iterations 2
DILUPBiCGStab:  Solving for ILambda_56_0, Initial residual = 1, Final residual = 2.669193429e-64, No Iterations 2
DILUPBiCGStab:  Solving for ILambda_57_0, Initial residual = 1, Final residual = 2.55851722238e-64, No Iterations 2
DILUPBiCGStab:  Solving for ILambda_58_0, Initial residual = 1, Final residual = 2.38836926946e-64, No Iterations 2
DILUPBiCGStab:  Solving for ILambda_59_0, Initial residual = 1, Final residual = 2.26632133447e-64, No Iterations 2
DILUPBiCGStab:  Solving for ILambda_60_0, Initial residual = 1, Final residual = 8.47101993021e-61, No Iterations 15
DILUPBiCGStab:  Solving for ILambda_61_0, Initial residual = 1, Final residual = 2.23545299993e-62, No Iterations 19
DILUPBiCGStab:  Solving for ILambda_62_0, Initial residual = 1, Final residual = 6.1828602882e-61, No Iterations 21
DILUPBiCGStab:  Solving for ILambda_63_0, Initial residual = 1, Final residual = 3.98492675782e-62, No Iterations 23
DILUPBiCGStab:  Solving for ILambda_64_0, Initial residual = 1, Final residual = 1.58656143447e-61, No Iterations 25
DILUPBiCGStab:  Solving for ILambda_65_0, Initial residual = 1, Final residual = 2.39308922327e-63, No Iterations 26
DILUPBiCGStab:  Solving for ILambda_66_0, Initial residual = 1, Final residual = 7.40369408506e-61, No Iterations 24
DILUPBiCGStab:  Solving for ILambda_67_0, Initial residual = 1, Final residual = 7.97525301645e-62, No Iterations 24
DILUPBiCGStab:  Solving for ILambda_68_0, Initial residual = 1, Final residual = 5.07467322923e-61, No Iterations 23
DILUPBiCGStab:  Solving for ILambda_69_0, Initial residual = 1, Final residual = 8.32211530671e-62, No Iterations 22
DILUPBiCGStab:  Solving for ILambda_70_0, Initial residual = 1, Final residual = 9.67729564374e-62, No Iterations 20
DILUPBiCGStab:  Solving for ILambda_71_0, Initial residual = 1, Final residual = 1.17453118788e-61, No Iterations 16
DILUPBiCGStab:  Solving for ILambda_72_0, Initial residual = 1, Final residual = 8.54007308903e-63, No Iterations 15
DILUPBiCGStab:  Solving for ILambda_73_0, Initial residual = 1, Final residual = 1.18407506875e-61, No Iterations 14
DILUPBiCGStab:  Solving for ILambda_74_0, Initial residual = 1, Final residual = 8.13363709666e-61, No Iterations 15
DILUPBiCGStab:  Solving for ILambda_75_0, Initial residual = 1, Final residual = 3.35941252939e-63, No Iterations 15
DILUPBiCGStab:  Solving for ILambda_76_0, Initial residual = 1, Final residual = 3.49172420557e-61, No Iterations 15
DILUPBiCGStab:  Solving for ILambda_77_0, Initial residual = 1, Final residual = 5.51957388308e-62, No Iterations 15
DILUPBiCGStab:  Solving for ILambda_78_0, Initial residual = 1, Final residual = 9.02968729936e-61, No Iterations 15
DILUPBiCGStab:  Solving for ILambda_79_0, Initial residual = 1, Final residual = 1.99273889044e-61, No Iterations 15
DILUPBiCGStab:  Solving for ILambda_80_0, Initial residual = 1, Final residual = 4.18750154293e-62, No Iterations 15
DILUPBiCGStab:  Solving for ILambda_81_0, Initial residual = 1, Final residual = 5.86239877918e-62, No Iterations 15
DILUPBiCGStab:  Solving for ILambda_82_0, Initial residual = 1, Final residual = 5.28448797971e-63, No Iterations 15
DILUPBiCGStab:  Solving for ILambda_83_0, Initial residual = 1, Final residual = 1.57445355865e-61, No Iterations 15
DILUPBiCGStab:  Solving for ILambda_84_0, Initial residual = 1, Final residual = 2.0997410514e-61, No Iterations 16
DILUPBiCGStab:  Solving for ILambda_85_0, Initial residual = 1, Final residual = 8.61233982375e-62, No Iterations 20
DILUPBiCGStab:  Solving for ILambda_86_0, Initial residual = 1, Final residual = 8.8531140274e-62, No Iterations 22
DILUPBiCGStab:  Solving for ILambda_87_0, Initial residual = 1, Final residual = 3.62084782817e-62, No Iterations 23
DILUPBiCGStab:  Solving for ILambda_88_0, Initial residual = 1, Final residual = 8.18831194466e-62, No Iterations 24
DILUPBiCGStab:  Solving for ILambda_89_0, Initial residual = 1, Final residual = 7.31383680769e-61, No Iterations 24
DILUPBiCGStab:  Solving for ILambda_90_0, Initial residual = 1, Final residual = 7.53768680831e-62, No Iterations 25
DILUPBiCGStab:  Solving for ILambda_91_0, Initial residual = 1, Final residual = 7.60591146949e-62, No Iterations 25
DILUPBiCGStab:  Solving for ILambda_92_0, Initial residual = 1, Final residual = 4.62451814347e-62, No Iterations 23
DILUPBiCGStab:  Solving for ILambda_93_0, Initial residual = 1, Final residual = 2.01220489837e-61, No Iterations 21
DILUPBiCGStab:  Solving for ILambda_94_0, Initial residual = 1, Final residual = 9.39899041314e-61, No Iterations 19
DILUPBiCGStab:  Solving for ILambda_95_0, Initial residual = 1, Final residual = 9.10241828673e-61, No Iterations 15
DILUPBiCGStab:  Solving for ILambda_96_0, Initial residual = 1, Final residual = 6.79690220793e-64, No Iterations 2
DILUPBiCGStab:  Solving for ILambda_97_0, Initial residual = 1, Final residual = 5.2158996809e-64, No Iterations 2
DILUPBiCGStab:  Solving for ILambda_98_0, Initial residual = 1, Final residual = 2.63608297467e-64, No Iterations 2
DILUPBiCGStab:  Solving for ILambda_99_0, Initial residual = 1, Final residual = 2.91358661029e-64, No Iterations 2
DILUPBiCGStab:  Solving for ILambda_100_0, Initial residual = 1, Final residual = 2.25955117329e-64, No Iterations 2
DILUPBiCGStab:  Solving for ILambda_101_0, Initial residual = 1, Final residual = 2.0910260263e-64, No Iterations 2
DILUPBiCGStab:  Solving for ILambda_102_0, Initial residual = 1, Final residual = 3.92176308982e-64, No Iterations 2
DILUPBiCGStab:  Solving for ILambda_103_0, Initial residual = 1, Final residual = 6.9406353551e-64, No Iterations 2
DILUPBiCGStab:  Solving for ILambda_104_0, Initial residual = 1, Final residual = 3.89248718779e-64, No Iterations 2
DILUPBiCGStab:  Solving for ILambda_105_0, Initial residual = 1, Final residual = 3.95576200975e-64, No Iterations 2
DILUPBiCGStab:  Solving for ILambda_106_0, Initial residual = 1, Final residual = 4.31199349668e-64, No Iterations 2
DILUPBiCGStab:  Solving for ILambda_107_0, Initial residual = 1, Final residual = 6.14251557178e-64, No Iterations 2
DILUPBiCGStab:  Solving for ILambda_108_0, Initial residual = 1, Final residual = 1.57089888169e-62, No Iterations 17
DILUPBiCGStab:  Solving for ILambda_109_0, Initial residual = 1, Final residual = 1.7514226801e-61, No Iterations 21
DILUPBiCGStab:  Solving for ILambda_110_0, Initial residual = 1, Final residual = 6.09953040738e-61, No Iterations 24
DILUPBiCGStab:  Solving for ILambda_111_0, Initial residual = 1, Final residual = 6.72479582678e-61, No Iterations 26
DILUPBiCGStab:  Solving for ILambda_112_0, Initial residual = 1, Final residual = 6.58166641805e-62, No Iterations 28
DILUPBiCGStab:  Solving for ILambda_113_0, Initial residual = 1, Final residual = 4.29833513932e-61, No Iterations 28
DILUPBiCGStab:  Solving for ILambda_114_0, Initial residual = 1, Final residual = 4.51292002498e-61, No Iterations 28
DILUPBiCGStab:  Solving for ILambda_115_0, Initial residual = 1, Final residual = 8.45788967865e-61, No Iterations 27
DILUPBiCGStab:  Solving for ILambda_116_0, Initial residual = 1, Final residual = 6.08126298389e-62, No Iterations 27
DILUPBiCGStab:  Solving for ILambda_117_0, Initial residual = 1, Final residual = 5.59821006243e-61, No Iterations 25
DILUPBiCGStab:  Solving for ILambda_118_0, Initial residual = 1, Final residual = 6.61500182354e-61, No Iterations 22
DILUPBiCGStab:  Solving for ILambda_119_0, Initial residual = 1, Final residual = 9.96994351734e-62, No Iterations 18
DILUPBiCGStab:  Solving for ILambda_120_0, Initial residual = 1, Final residual = 5.8423548376e-62, No Iterations 14
DILUPBiCGStab:  Solving for ILambda_121_0, Initial residual = 1, Final residual = 8.4891825505e-63, No Iterations 15
DILUPBiCGStab:  Solving for ILambda_122_0, Initial residual = 1, Final residual = 2.59838102688e-61, No Iterations 14
DILUPBiCGStab:  Solving for ILambda_123_0, Initial residual = 1, Final residual = 4.25527519661e-63, No Iterations 14
DILUPBiCGStab:  Solving for ILambda_124_0, Initial residual = 1, Final residual = 6.89549969875e-63, No Iterations 15
DILUPBiCGStab:  Solving for ILambda_125_0, Initial residual = 1, Final residual = 3.63461998159e-62, No Iterations 14
DILUPBiCGStab:  Solving for ILambda_126_0, Initial residual = 1, Final residual = 6.97019354987e-61, No Iterations 14
DILUPBiCGStab:  Solving for ILambda_127_0, Initial residual = 1, Final residual = 8.03701105586e-61, No Iterations 13
DILUPBiCGStab:  Solving for ILambda_128_0, Initial residual = 1, Final residual = 6.44712399101e-63, No Iterations 14
DILUPBiCGStab:  Solving for ILambda_129_0, Initial residual = 1, Final residual = 2.92934244381e-62, No Iterations 14
DILUPBiCGStab:  Solving for ILambda_130_0, Initial residual = 1, Final residual = 8.94362627688e-63, No Iterations 14
DILUPBiCGStab:  Solving for ILambda_131_0, Initial residual = 1, Final residual = 3.63201541248e-61, No Iterations 14
DILUPBiCGStab:  Solving for ILambda_132_0, Initial residual = 1, Final residual = 1.40881915905e-61, No Iterations 18
DILUPBiCGStab:  Solving for ILambda_133_0, Initial residual = 1, Final residual = 6.62807732965e-61, No Iterations 22
DILUPBiCGStab:  Solving for ILambda_134_0, Initial residual = 1, Final residual = 5.61938772601e-61, No Iterations 25
DILUPBiCGStab:  Solving for ILambda_135_0, Initial residual = 1, Final residual = 6.06857591275e-62, No Iterations 27
DILUPBiCGStab:  Solving for ILambda_136_0, Initial residual = 1, Final residual = 8.45810135409e-61, No Iterations 27
DILUPBiCGStab:  Solving for ILambda_137_0, Initial residual = 1, Final residual = 4.51296549876e-61, No Iterations 28
DILUPBiCGStab:  Solving for ILambda_138_0, Initial residual = 1, Final residual = 4.30126778777e-61, No Iterations 28
DILUPBiCGStab:  Solving for ILambda_139_0, Initial residual = 1, Final residual = 6.58338346138e-62, No Iterations 28
DILUPBiCGStab:  Solving for ILambda_140_0, Initial residual = 1, Final residual = 6.95045365735e-61, No Iterations 26
DILUPBiCGStab:  Solving for ILambda_141_0, Initial residual = 1, Final residual = 6.14220192667e-61, No Iterations 24
DILUPBiCGStab:  Solving for ILambda_142_0, Initial residual = 1, Final residual = 1.49384421704e-61, No Iterations 21
DILUPBiCGStab:  Solving for ILambda_143_0, Initial residual = 1, Final residual = 1.56953767968e-62, No Iterations 17
DILUPBiCGStab:  Solving for ILambda_144_0, Initial residual = 1, Final residual = 2.14811015328e-61, No Iterations 14
DILUPBiCGStab:  Solving for ILambda_145_0, Initial residual = 1, Final residual = 1.18351101269e-61, No Iterations 14
DILUPBiCGStab:  Solving for ILambda_146_0, Initial residual = 1, Final residual = 7.23462299642e-63, No Iterations 14
DILUPBiCGStab:  Solving for ILambda_147_0, Initial residual = 1, Final residual = 1.79283657763e-62, No Iterations 14
DILUPBiCGStab:  Solving for ILambda_148_0, Initial residual = 1, Final residual = 7.65886699285e-62, No Iterations 14
DILUPBiCGStab:  Solving for ILambda_149_0, Initial residual = 1, Final residual = 5.32464083099e-62, No Iterations 14
DILUPBiCGStab:  Solving for ILambda_150_0, Initial residual = 1, Final residual = 1.13507079669e-61, No Iterations 15
DILUPBiCGStab:  Solving for ILambda_151_0, Initial residual = 1, Final residual = 1.95665503049e-62, No Iterations 14
DILUPBiCGStab:  Solving for ILambda_152_0, Initial residual = 1, Final residual = 5.23899854884e-63, No Iterations 14
DILUPBiCGStab:  Solving for ILambda_153_0, Initial residual = 1, Final residual = 7.29348003535e-63, No Iterations 14
DILUPBiCGStab:  Solving for ILambda_154_0, Initial residual = 1, Final residual = 2.9208465318e-62, No Iterations 14
DILUPBiCGStab:  Solving for ILambda_155_0, Initial residual = 1, Final residual = 1.14802416039e-63, No Iterations 14
DILUPBiCGStab:  Solving for ILambda_156_0, Initial residual = 1, Final residual = 1.22245009797e-61, No Iterations 18
DILUPBiCGStab:  Solving for ILambda_157_0, Initial residual = 1, Final residual = 1.95679105491e-61, No Iterations 22
DILUPBiCGStab:  Solving for ILambda_158_0, Initial residual = 1, Final residual = 2.97715182034e-61, No Iterations 25
DILUPBiCGStab:  Solving for ILambda_159_0, Initial residual = 1, Final residual = 9.99145095461e-62, No Iterations 27
DILUPBiCGStab:  Solving for ILambda_160_0, Initial residual = 1, Final residual = 6.80276738413e-62, No Iterations 28
DILUPBiCGStab:  Solving for ILambda_161_0, Initial residual = 1, Final residual = 4.81397167809e-61, No Iterations 28
DILUPBiCGStab:  Solving for ILambda_162_0, Initial residual = 1, Final residual = 5.2542792406e-61, No Iterations 28
DILUPBiCGStab:  Solving for ILambda_163_0, Initial residual = 1, Final residual = 8.10430188003e-62, No Iterations 28
DILUPBiCGStab:  Solving for ILambda_164_0, Initial residual = 1, Final residual = 8.33007092489e-61, No Iterations 26
DILUPBiCGStab:  Solving for ILambda_165_0, Initial residual = 1, Final residual = 7.46665861935e-61, No Iterations 24
DILUPBiCGStab:  Solving for ILambda_166_0, Initial residual = 1, Final residual = 1.85712273961e-61, No Iterations 21
DILUPBiCGStab:  Solving for ILambda_167_0, Initial residual = 1, Final residual = 1.65287033069e-62, No Iterations 17
DILUPBiCGStab:  Solving for ILambda_168_0, Initial residual = 1, Final residual = 3.98576399866e-64, No Iterations 2
DILUPBiCGStab:  Solving for ILambda_169_0, Initial residual = 1, Final residual = 1.01692471694e-63, No Iterations 2
DILUPBiCGStab:  Solving for ILambda_170_0, Initial residual = 1, Final residual = 2.64156143405e-64, No Iterations 2
DILUPBiCGStab:  Solving for ILambda_171_0, Initial residual = 1, Final residual = 2.51908049341e-64, No Iterations 2
DILUPBiCGStab:  Solving for ILambda_172_0, Initial residual = 1, Final residual = 4.35655135902e-64, No Iterations 2
DILUPBiCGStab:  Solving for ILambda_173_0, Initial residual = 1, Final residual = 2.188246177e-64, No Iterations 2
DILUPBiCGStab:  Solving for ILambda_174_0, Initial residual = 1, Final residual = 6.8652002545e-64, No Iterations 2
DILUPBiCGStab:  Solving for ILambda_175_0, Initial residual = 1, Final residual = 3.94000251632e-64, No Iterations 2
DILUPBiCGStab:  Solving for ILambda_176_0, Initial residual = 1, Final residual = 2.35763812764e-64, No Iterations 2
DILUPBiCGStab:  Solving for ILambda_177_0, Initial residual = 1, Final residual = 9.05276733695e-64, No Iterations 2
DILUPBiCGStab:  Solving for ILambda_178_0, Initial residual = 1, Final residual = 1.08600132698e-63, No Iterations 2
DILUPBiCGStab:  Solving for ILambda_179_0, Initial residual = 1, Final residual = 5.82239769153e-64, No Iterations 2
DILUPBiCGStab:  Solving for ILambda_180_0, Initial residual = 1, Final residual = 1.66075025432e-62, No Iterations 17
DILUPBiCGStab:  Solving for ILambda_181_0, Initial residual = 1, Final residual = 1.26948124434e-61, No Iterations 21
DILUPBiCGStab:  Solving for ILambda_182_0, Initial residual = 1, Final residual = 7.27143056006e-61, No Iterations 24
DILUPBiCGStab:  Solving for ILambda_183_0, Initial residual = 1, Final residual = 8.35002733029e-61, No Iterations 26
DILUPBiCGStab:  Solving for ILambda_184_0, Initial residual = 1, Final residual = 8.10570483846e-62, No Iterations 28
DILUPBiCGStab:  Solving for ILambda_185_0, Initial residual = 1, Final residual = 5.25708310153e-61, No Iterations 28
DILUPBiCGStab:  Solving for ILambda_186_0, Initial residual = 1, Final residual = 4.81362931732e-61, No Iterations 28
DILUPBiCGStab:  Solving for ILambda_187_0, Initial residual = 1, Final residual = 6.80271930683e-62, No Iterations 28
DILUPBiCGStab:  Solving for ILambda_188_0, Initial residual = 1, Final residual = 1.00372476004e-61, No Iterations 27
DILUPBiCGStab:  Solving for ILambda_189_0, Initial residual = 1, Final residual = 2.95770058794e-61, No Iterations 25
DILUPBiCGStab:  Solving for ILambda_190_0, Initial residual = 1, Final residual = 1.99765903533e-61, No Iterations 22
DILUPBiCGStab:  Solving for ILambda_191_0, Initial residual = 1, Final residual = 1.12682555394e-61, No Iterations 18
DILUPBiCGStab:  Solving for ILambda_192_0, Initial residual = 1, Final residual = 9.37915205248e-62, No Iterations 15
DILUPBiCGStab:  Solving for ILambda_193_0, Initial residual = 1, Final residual = 1.30657034955e-61, No Iterations 16
DILUPBiCGStab:  Solving for ILambda_194_0, Initial residual = 1, Final residual = 3.45133674956e-62, No Iterations 16
DILUPBiCGStab:  Solving for ILambda_195_0, Initial residual = 1, Final residual = 3.36677702455e-61, No Iterations 16
DILUPBiCGStab:  Solving for ILambda_196_0, Initial residual = 1, Final residual = 4.22316151013e-63, No Iterations 16
DILUPBiCGStab:  Solving for ILambda_197_0, Initial residual = 1, Final residual = 8.57774722668e-63, No Iterations 16
DILUPBiCGStab:  Solving for ILambda_198_0, Initial residual = 1, Final residual = 3.39609851096e-62, No Iterations 16
DILUPBiCGStab:  Solving for ILambda_199_0, Initial residual = 1, Final residual = 3.70793511897e-63, No Iterations 16
DILUPBiCGStab:  Solving for ILambda_200_0, Initial residual = 1, Final residual = 2.4190783489e-62, No Iterations 16
DILUPBiCGStab:  Solving for ILambda_201_0, Initial residual = 1, Final residual = 7.80705597946e-63, No Iterations 16
DILUPBiCGStab:  Solving for ILambda_202_0, Initial residual = 1, Final residual = 1.36404468941e-61, No Iterations 16
DILUPBiCGStab:  Solving for ILambda_203_0, Initial residual = 1, Final residual = 7.5305558813e-63, No Iterations 16
DILUPBiCGStab:  Solving for ILambda_204_0, Initial residual = 1, Final residual = 3.3986770457e-61, No Iterations 17
DILUPBiCGStab:  Solving for ILambda_205_0, Initial residual = 1, Final residual = 2.08632265507e-61, No Iterations 20
DILUPBiCGStab:  Solving for ILambda_206_0, Initial residual = 1, Final residual = 1.72735344847e-61, No Iterations 22
DILUPBiCGStab:  Solving for ILambda_207_0, Initial residual = 1, Final residual = 6.68785744492e-62, No Iterations 23
DILUPBiCGStab:  Solving for ILambda_208_0, Initial residual = 1, Final residual = 2.61343951311e-61, No Iterations 24
DILUPBiCGStab:  Solving for ILambda_209_0, Initial residual = 1, Final residual = 4.60796494131e-61, No Iterations 25
DILUPBiCGStab:  Solving for ILambda_210_0, Initial residual = 1, Final residual = 2.87468066565e-61, No Iterations 25
DILUPBiCGStab:  Solving for ILambda_211_0, Initial residual = 1, Final residual = 1.07444261085e-61, No Iterations 25
DILUPBiCGStab:  Solving for ILambda_212_0, Initial residual = 1, Final residual = 1.04765025804e-61, No Iterations 23
DILUPBiCGStab:  Solving for ILambda_213_0, Initial residual = 1, Final residual = 5.30420863951e-61, No Iterations 21
DILUPBiCGStab:  Solving for ILambda_214_0, Initial residual = 1, Final residual = 5.19733869844e-62, No Iterations 19
DILUPBiCGStab:  Solving for ILambda_215_0, Initial residual = 1, Final residual = 1.04874584719e-62, No Iterations 15
DILUPBiCGStab:  Solving for ILambda_216_0, Initial residual = 1, Final residual = 1.04703043779e-63, No Iterations 2
DILUPBiCGStab:  Solving for ILambda_217_0, Initial residual = 1, Final residual = 2.41480718182e-64, No Iterations 2
DILUPBiCGStab:  Solving for ILambda_218_0, Initial residual = 1, Final residual = 1.47370155616e-63, No Iterations 2
DILUPBiCGStab:  Solving for ILambda_219_0, Initial residual = 1, Final residual = 2.64933377221e-64, No Iterations 2
DILUPBiCGStab:  Solving for ILambda_220_0, Initial residual = 1, Final residual = 2.78228686438e-64, No Iterations 2
DILUPBiCGStab:  Solving for ILambda_221_0, Initial residual = 1, Final residual = 6.24434030538e-64, No Iterations 2
DILUPBiCGStab:  Solving for ILambda_222_0, Initial residual = 1, Final residual = 2.93564195295e-64, No Iterations 2
DILUPBiCGStab:  Solving for ILambda_223_0, Initial residual = 1, Final residual = 2.99723269762e-64, No Iterations 2
DILUPBiCGStab:  Solving for ILambda_224_0, Initial residual = 1, Final residual = 2.57807548703e-64, No Iterations 2
DILUPBiCGStab:  Solving for ILambda_225_0, Initial residual = 1, Final residual = 2.68711282755e-64, No Iterations 2
DILUPBiCGStab:  Solving for ILambda_226_0, Initial residual = 1, Final residual = 3.50571760592e-64, No Iterations 2
DILUPBiCGStab:  Solving for ILambda_227_0, Initial residual = 1, Final residual = 9.90180617352e-64, No Iterations 2
DILUPBiCGStab:  Solving for ILambda_228_0, Initial residual = 1, Final residual = 1.00406102955e-62, No Iterations 15
DILUPBiCGStab:  Solving for ILambda_229_0, Initial residual = 1, Final residual = 3.17940356512e-62, No Iterations 19
DILUPBiCGStab:  Solving for ILambda_230_0, Initial residual = 1, Final residual = 2.52102788774e-61, No Iterations 21
DILUPBiCGStab:  Solving for ILambda_231_0, Initial residual = 1, Final residual = 1.0824796042e-61, No Iterations 23
DILUPBiCGStab:  Solving for ILambda_232_0, Initial residual = 1, Final residual = 4.33402914652e-61, No Iterations 25
DILUPBiCGStab:  Solving for ILambda_233_0, Initial residual = 1, Final residual = 8.34350744914e-61, No Iterations 25
DILUPBiCGStab:  Solving for ILambda_234_0, Initial residual = 1, Final residual = 7.33627389331e-61, No Iterations 25
DILUPBiCGStab:  Solving for ILambda_235_0, Initial residual = 1, Final residual = 2.46069376777e-61, No Iterations 24
DILUPBiCGStab:  Solving for ILambda_236_0, Initial residual = 1, Final residual = 1.14327231897e-61, No Iterations 23
DILUPBiCGStab:  Solving for ILambda_237_0, Initial residual = 1, Final residual = 1.49542129616e-61, No Iterations 22
DILUPBiCGStab:  Solving for ILambda_238_0, Initial residual = 1, Final residual = 1.98159158582e-61, No Iterations 20
DILUPBiCGStab:  Solving for ILambda_239_0, Initial residual = 1, Final residual = 3.35235522338e-61, No Iterations 17
DILUPBiCGStab:  Solving for ILambda_240_0, Initial residual = 1, Final residual = 1.95873684958e-61, No Iterations 14
DILUPBiCGStab:  Solving for ILambda_241_0, Initial residual = 1, Final residual = 2.76624619818e-63, No Iterations 14
DILUPBiCGStab:  Solving for ILambda_242_0, Initial residual = 1, Final residual = 4.52352952553e-63, No Iterations 15
DILUPBiCGStab:  Solving for ILambda_243_0, Initial residual = 1, Final residual = 4.61173259037e-63, No Iterations 15
DILUPBiCGStab:  Solving for ILambda_244_0, Initial residual = 1, Final residual = 4.80904751792e-61, No Iterations 15
DILUPBiCGStab:  Solving for ILambda_245_0, Initial residual = 1, Final residual = 1.70385808299e-63, No Iterations 15
DILUPBiCGStab:  Solving for ILambda_246_0, Initial residual = 1, Final residual = 5.22285086295e-61, No Iterations 15
DILUPBiCGStab:  Solving for ILambda_247_0, Initial residual = 1, Final residual = 6.54195126497e-62, No Iterations 15
DILUPBiCGStab:  Solving for ILambda_248_0, Initial residual = 1, Final residual = 6.7361068112e-63, No Iterations 15
DILUPBiCGStab:  Solving for ILambda_249_0, Initial residual = 1, Final residual = 3.33097378048e-61, No Iterations 15
DILUPBiCGStab:  Solving for ILambda_250_0, Initial residual = 1, Final residual = 2.22610374315e-62, No Iterations 15
DILUPBiCGStab:  Solving for ILambda_251_0, Initial residual = 1, Final residual = 4.41721477164e-61, No Iterations 14
DILUPBiCGStab:  Solving for ILambda_252_0, Initial residual = 1, Final residual = 2.30649468316e-62, No Iterations 14
DILUPBiCGStab:  Solving for ILambda_253_0, Initial residual = 1, Final residual = 9.79494838148e-61, No Iterations 15
DILUPBiCGStab:  Solving for ILambda_254_0, Initial residual = 1, Final residual = 1.88435417569e-62, No Iterations 17
DILUPBiCGStab:  Solving for ILambda_255_0, Initial residual = 1, Final residual = 8.7724623889e-62, No Iterations 17
DILUPBiCGStab:  Solving for ILambda_256_0, Initial residual = 1, Final residual = 9.61297052334e-62, No Iterations 18
DILUPBiCGStab:  Solving for ILambda_257_0, Initial residual = 1, Final residual = 6.04736677245e-61, No Iterations 18
DILUPBiCGStab:  Solving for ILambda_258_0, Initial residual = 1, Final residual = 6.55661804211e-61, No Iterations 18
DILUPBiCGStab:  Solving for ILambda_259_0, Initial residual = 1, Final residual = 4.60263683754e-61, No Iterations 17
DILUPBiCGStab:  Solving for ILambda_260_0, Initial residual = 1, Final residual = 1.91543329767e-61, No Iterations 17
DILUPBiCGStab:  Solving for ILambda_261_0, Initial residual = 1, Final residual = 9.74094247199e-61, No Iterations 16
DILUPBiCGStab:  Solving for ILambda_262_0, Initial residual = 1, Final residual = 1.97025358409e-61, No Iterations 14
DILUPBiCGStab:  Solving for ILambda_263_0, Initial residual = 1, Final residual = 8.59367961012e-61, No Iterations 12
DILUPBiCGStab:  Solving for ILambda_264_0, Initial residual = 1, Final residual = 6.73924246851e-64, No Iterations 2
DILUPBiCGStab:  Solving for ILambda_265_0, Initial residual = 1, Final residual = 1.54259572802e-63, No Iterations 2
DILUPBiCGStab:  Solving for ILambda_266_0, Initial residual = 1, Final residual = 7.27863680766e-64, No Iterations 2
DILUPBiCGStab:  Solving for ILambda_267_0, Initial residual = 1, Final residual = 6.12166725019e-64, No Iterations 2
DILUPBiCGStab:  Solving for ILambda_268_0, Initial residual = 1, Final residual = 1.75695161415e-64, No Iterations 2
DILUPBiCGStab:  Solving for ILambda_269_0, Initial residual = 1, Final residual = 8.40083448097e-64, No Iterations 2
DILUPBiCGStab:  Solving for ILambda_270_0, Initial residual = 1, Final residual = 6.5746630214e-64, No Iterations 2
DILUPBiCGStab:  Solving for ILambda_271_0, Initial residual = 1, Final residual = 1.83668828546e-64, No Iterations 2
DILUPBiCGStab:  Solving for ILambda_272_0, Initial residual = 1, Final residual = 4.21816461632e-64, No Iterations 2
DILUPBiCGStab:  Solving for ILambda_273_0, Initial residual = 1, Final residual = 6.21359708474e-64, No Iterations 2
DILUPBiCGStab:  Solving for ILambda_274_0, Initial residual = 1, Final residual = 1.66171681767e-64, No Iterations 2
DILUPBiCGStab:  Solving for ILambda_275_0, Initial residual = 1, Final residual = 7.22600309025e-64, No Iterations 2
DILUPBiCGStab:  Solving for ILambda_276_0, Initial residual = 1, Final residual = 9.11299112653e-61, No Iterations 12
DILUPBiCGStab:  Solving for ILambda_277_0, Initial residual = 1, Final residual = 2.23489384288e-61, No Iterations 14
DILUPBiCGStab:  Solving for ILambda_278_0, Initial residual = 1, Final residual = 6.33635425013e-61, No Iterations 16
DILUPBiCGStab:  Solving for ILambda_279_0, Initial residual = 1, Final residual = 2.9841191269e-61, No Iterations 17
DILUPBiCGStab:  Solving for ILambda_280_0, Initial residual = 1, Final residual = 4.46515859152e-61, No Iterations 17
DILUPBiCGStab:  Solving for ILambda_281_0, Initial residual = 1, Final residual = 6.56609187703e-61, No Iterations 18
DILUPBiCGStab:  Solving for ILambda_282_0, Initial residual = 1, Final residual = 5.85223250046e-61, No Iterations 18
DILUPBiCGStab:  Solving for ILambda_283_0, Initial residual = 1, Final residual = 9.14530970774e-62, No Iterations 18
DILUPBiCGStab:  Solving for ILambda_284_0, Initial residual = 1, Final residual = 8.95749398041e-62, No Iterations 17
DILUPBiCGStab:  Solving for ILambda_285_0, Initial residual = 1, Final residual = 1.10314575115e-61, No Iterations 17
[...]
DILUPBiCGStab:  Solving for ILambda_140_0, Initial residual = 1.16313751424e-15, Final residual = 7.65593195801e-62, No Iterations 19
DILUPBiCGStab:  Solving for ILambda_141_0, Initial residual = 1.1153641633e-15, Final residual = 3.87889700342e-61, No Iterations 18
DILUPBiCGStab:  Solving for ILambda_142_0, Initial residual = 1.05923700236e-15, Final residual = 1.89222239394e-61, No Iterations 16
DILUPBiCGStab:  Solving for ILambda_143_0, Initial residual = 9.21007552515e-16, Final residual = 4.05475906024e-61, No Iterations 12
DILUPBiCGStab:  Solving for ILambda_144_0, Initial residual = 9.1617800611e-16, Final residual = 1.82189671618e-63, No Iterations 9
DILUPBiCGStab:  Solving for ILambda_145_0, Initial residual = 9.37454115954e-16, Final residual = 2.06300147468e-61, No Iterations 9
DILUPBiCGStab:  Solving for ILambda_146_0, Initial residual = 1.04239885408e-15, Final residual = 4.01900299505e-61, No Iterations 10
DILUPBiCGStab:  Solving for ILambda_147_0, Initial residual = 1.06432760533e-15, Final residual = 5.47879875515e-63, No Iterations 10
DILUPBiCGStab:  Solving for ILambda_148_0, Initial residual = 1.18702418971e-15, Final residual = 1.68695934696e-62, No Iterations 10
DILUPBiCGStab:  Solving for ILambda_149_0, Initial residual = 1.22043942971e-15, Final residual = 2.72509326709e-62, No Iterations 10
DILUPBiCGStab:  Solving for ILambda_150_0, Initial residual = 1.2907941733e-15, Final residual = 1.36996284947e-63, No Iterations 9
DILUPBiCGStab:  Solving for ILambda_151_0, Initial residual = 1.2364944083e-15, Final residual = 9.69385441515e-61, No Iterations 9
DILUPBiCGStab:  Solving for ILambda_152_0, Initial residual = 1.19446430174e-15, Final residual = 2.1411061377e-62, No Iterations 9
DILUPBiCGStab:  Solving for ILambda_153_0, Initial residual = 1.11836631377e-15, Final residual = 4.85538041108e-63, No Iterations 10
DILUPBiCGStab:  Solving for ILambda_154_0, Initial residual = 9.80267392205e-16, Final residual = 3.03931672217e-62, No Iterations 9
DILUPBiCGStab:  Solving for ILambda_155_0, Initial residual = 8.80152200484e-16, Final residual = 3.05552964494e-61, No Iterations 9
DILUPBiCGStab:  Solving for ILambda_156_0, Initial residual = 8.65663561265e-16, Final residual = 1.48346173124e-61, No Iterations 14
DILUPBiCGStab:  Solving for ILambda_157_0, Initial residual = 9.28317136266e-16, Final residual = 3.46186643066e-61, No Iterations 17
DILUPBiCGStab:  Solving for ILambda_158_0, Initial residual = 1.0882142808e-15, Final residual = 5.32592116852e-61, No Iterations 18
DILUPBiCGStab:  Solving for ILambda_159_0, Initial residual = 1.06067281346e-15, Final residual = 1.5329449614e-61, No Iterations 20
DILUPBiCGStab:  Solving for ILambda_160_0, Initial residual = 1.24602297283e-15, Final residual = 1.16835989132e-61, No Iterations 20
DILUPBiCGStab:  Solving for ILambda_161_0, Initial residual = 1.2421071244e-15, Final residual = 1.84452146359e-61, No Iterations 20
DILUPBiCGStab:  Solving for ILambda_162_0, Initial residual = 1.31389767909e-15, Final residual = 3.70546551934e-61, No Iterations 20
DILUPBiCGStab:  Solving for ILambda_163_0, Initial residual = 1.17162185252e-15, Final residual = 1.29369965212e-61, No Iterations 20
DILUPBiCGStab:  Solving for ILambda_164_0, Initial residual = 1.15778585471e-15, Final residual = 1.16477416168e-61, No Iterations 19
DILUPBiCGStab:  Solving for ILambda_165_0, Initial residual = 1.16052694861e-15, Final residual = 4.13064085212e-61, No Iterations 18
DILUPBiCGStab:  Solving for ILambda_166_0, Initial residual = 9.42414190642e-16, Final residual = 1.11895710238e-61, No Iterations 16
DILUPBiCGStab:  Solving for ILambda_167_0, Initial residual = 8.81979596422e-16, Final residual = 2.70471151409e-61, No Iterations 12
DILUPBiCGStab:  Solving for ILambda_168_0, Initial residual = 8.89289180172e-16, Final residual = 1.82499338435e-63, No Iterations 2
DILUPBiCGStab:  Solving for ILambda_169_0, Initial residual = 9.9854135158e-16, Final residual = 1.39327426891e-63, No Iterations 2
DILUPBiCGStab:  Solving for ILambda_170_0, Initial residual = 1.08925850705e-15, Final residual = 1.49768593725e-63, No Iterations 2
DILUPBiCGStab:  Solving for ILambda_171_0, Initial residual = 1.1592216658e-15, Final residual = 1.59219304175e-63, No Iterations 2
DILUPBiCGStab:  Solving for ILambda_172_0, Initial residual = 1.28792255112e-15, Final residual = 1.64721675331e-63, No Iterations 2
DILUPBiCGStab:  Solving for ILambda_173_0, Initial residual = 1.31207028315e-15, Final residual = 1.52759043459e-63, No Iterations 2
DILUPBiCGStab:  Solving for ILambda_174_0, Initial residual = 1.1989022633e-15, Final residual = 1.46910283844e-63, No Iterations 2
DILUPBiCGStab:  Solving for ILambda_175_0, Initial residual = 1.19067898158e-15, Final residual = 1.44995723e-63, No Iterations 2
DILUPBiCGStab:  Solving for ILambda_176_0, Initial residual = 1.11014303205e-15, Final residual = 1.47218585818e-63, No Iterations 2
DILUPBiCGStab:  Solving for ILambda_177_0, Initial residual = 1.05884541752e-15, Final residual = 1.43756291295e-63, No Iterations 2
DILUPBiCGStab:  Solving for ILambda_178_0, Initial residual = 9.35235135173e-16, Final residual = 1.27057748198e-63, No Iterations 2
DILUPBiCGStab:  Solving for ILambda_179_0, Initial residual = 8.72712088453e-16, Final residual = 1.87631814418e-63, No Iterations 2
DILUPBiCGStab:  Solving for ILambda_180_0, Initial residual = 8.79499559078e-16, Final residual = 2.97879207703e-61, No Iterations 13
DILUPBiCGStab:  Solving for ILambda_181_0, Initial residual = 1.06263073767e-15, Final residual = 5.33822679174e-61, No Iterations 16
DILUPBiCGStab:  Solving for ILambda_182_0, Initial residual = 1.12985280252e-15, Final residual = 3.04623782873e-61, No Iterations 18
DILUPBiCGStab:  Solving for ILambda_183_0, Initial residual = 1.13729291455e-15, Final residual = 5.71114360782e-62, No Iterations 19
DILUPBiCGStab:  Solving for ILambda_184_0, Initial residual = 1.24341240721e-15, Final residual = 7.03407053199e-62, No Iterations 20
DILUPBiCGStab:  Solving for ILambda_185_0, Initial residual = 1.25346308487e-15, Final residual = 9.7301468986e-61, No Iterations 20
DILUPBiCGStab:  Solving for ILambda_186_0, Initial residual = 1.2156098833e-15, Final residual = 1.6874096128e-61, No Iterations 20
DILUPBiCGStab:  Solving for ILambda_187_0, Initial residual = 1.17619034236e-15, Final residual = 1.67316100178e-61, No Iterations 20
DILUPBiCGStab:  Solving for ILambda_188_0, Initial residual = 1.08155733846e-15, Final residual = 6.4941941686e-62, No Iterations 20
DILUPBiCGStab:  Solving for ILambda_189_0, Initial residual = 1.07255088705e-15, Final residual = 8.59318004784e-61, No Iterations 18
DILUPBiCGStab:  Solving for ILambda_190_0, Initial residual = 9.54422792517e-16, Final residual = 4.42854525478e-62, No Iterations 17
DILUPBiCGStab:  Solving for ILambda_191_0, Initial residual = 9.07954724391e-16, Final residual = 6.31840139928e-62, No Iterations 14
DILUPBiCGStab:  Solving for ILambda_192_0, Initial residual = 4.28654875633e-16, Final residual = 5.53330613364e-61, No Iterations 10
DILUPBiCGStab:  Solving for ILambda_193_0, Initial residual = 4.30319111219e-16, Final residual = 6.86577793868e-61, No Iterations 10
DILUPBiCGStab:  Solving for ILambda_194_0, Initial residual = 4.37171845985e-16, Final residual = 3.22379227619e-62, No Iterations 11
DILUPBiCGStab:  Solving for ILambda_195_0, Initial residual = 4.38672921219e-16, Final residual = 3.25049541691e-62, No Iterations 11
DILUPBiCGStab:  Solving for ILambda_196_0, Initial residual = 5.2416894544e-16, Final residual = 5.30600244686e-64, No Iterations 10
DILUPBiCGStab:  Solving for ILambda_197_0, Initial residual = 4.98030657119e-16, Final residual = 1.80621593808e-62, No Iterations 11
DILUPBiCGStab:  Solving for ILambda_198_0, Initial residual = 4.91700035478e-16, Final residual = 1.36641403437e-61, No Iterations 11
DILUPBiCGStab:  Solving for ILambda_199_0, Initial residual = 5.15097229893e-16, Final residual = 2.72022194411e-61, No Iterations 11
DILUPBiCGStab:  Solving for ILambda_200_0, Initial residual = 4.3351705411e-16, Final residual = 1.33185968407e-62, No Iterations 11
DILUPBiCGStab:  Solving for ILambda_201_0, Initial residual = 4.21084235321e-16, Final residual = 7.93714987967e-61, No Iterations 10
DILUPBiCGStab:  Solving for ILambda_202_0, Initial residual = 4.32929676844e-16, Final residual = 4.02897272828e-61, No Iterations 10
DILUPBiCGStab:  Solving for ILambda_203_0, Initial residual = 4.36062355594e-16, Final residual = 3.90036032225e-63, No Iterations 10
DILUPBiCGStab:  Solving for ILambda_204_0, Initial residual = 4.28067498368e-16, Final residual = 2.3588275558e-61, No Iterations 13
DILUPBiCGStab:  Solving for ILambda_205_0, Initial residual = 4.26501158992e-16, Final residual = 4.23387868783e-62, No Iterations 15
DILUPBiCGStab:  Solving for ILambda_206_0, Initial residual = 4.29568573602e-16, Final residual = 3.36251217243e-62, No Iterations 16
DILUPBiCGStab:  Solving for ILambda_207_0, Initial residual = 4.33223365477e-16, Final residual = 2.72099265766e-61, No Iterations 17
DILUPBiCGStab:  Solving for ILambda_208_0, Initial residual = 5.05046552236e-16, Final residual = 1.2341083335e-61, No Iterations 18
DILUPBiCGStab:  Solving for ILambda_209_0, Initial residual = 5.27660576963e-16, Final residual = 6.71837104625e-62, No Iterations 18
DILUPBiCGStab:  Solving for ILambda_210_0, Initial residual = 4.99531732353e-16, Final residual = 6.47771854543e-61, No Iterations 17
DILUPBiCGStab:  Solving for ILambda_211_0, Initial residual = 5.17805691729e-16, Final residual = 4.88553371668e-62, No Iterations 18
DILUPBiCGStab:  Solving for ILambda_212_0, Initial residual = 4.36062355594e-16, Final residual = 1.39746249157e-61, No Iterations 17
DILUPBiCGStab:  Solving for ILambda_213_0, Initial residual = 4.51138372079e-16, Final residual = 4.56245050393e-62, No Iterations 16
DILUPBiCGStab:  Solving for ILambda_214_0, Initial residual = 4.23923225438e-16, Final residual = 3.19214204908e-62, No Iterations 14
DILUPBiCGStab:  Solving for ILambda_215_0, Initial residual = 4.29111724618e-16, Final residual = 3.25030465421e-62, No Iterations 11
DILUPBiCGStab:  Solving for ILambda_216_0, Initial residual = 4.14884141961e-16, Final residual = 5.78040838143e-64, No Iterations 2
DILUPBiCGStab:  Solving for ILambda_217_0, Initial residual = 4.3038437536e-16, Final residual = 6.02411597935e-64, No Iterations 2
DILUPBiCGStab:  Solving for ILambda_218_0, Initial residual = 4.29144356688e-16, Final residual = 6.22847164713e-64, No Iterations 2
DILUPBiCGStab:  Solving for ILambda_219_0, Initial residual = 4.34300223797e-16, Final residual = 6.29784463515e-64, No Iterations 2
DILUPBiCGStab:  Solving for ILambda_220_0, Initial residual = 4.93821120048e-16, Final residual = 6.92460809329e-64, No Iterations 2
DILUPBiCGStab:  Solving for ILambda_221_0, Initial residual = 5.2834585044e-16, Final residual = 7.72997458219e-64, No Iterations 2
DILUPBiCGStab:  Solving for ILambda_222_0, Initial residual = 5.07396061299e-16, Final residual = 7.33082675575e-64, No Iterations 2
DILUPBiCGStab:  Solving for ILambda_223_0, Initial residual = 5.19274134893e-16, Final residual = 7.56558556706e-64, No Iterations 2
DILUPBiCGStab:  Solving for ILambda_224_0, Initial residual = 4.38509760868e-16, Final residual = 6.00610359132e-64, No Iterations 2
DILUPBiCGStab:  Solving for ILambda_225_0, Initial residual = 4.48038325399e-16, Final residual = 6.60359916777e-64, No Iterations 2
DILUPBiCGStab:  Solving for ILambda_226_0, Initial residual = 4.23596904735e-16, Final residual = 5.98235169769e-64, No Iterations 2
DILUPBiCGStab:  Solving for ILambda_227_0, Initial residual = 4.4395931661e-16, Final residual = 6.19021114813e-64, No Iterations 2
DILUPBiCGStab:  Solving for ILambda_228_0, Initial residual = 4.36421308368e-16, Final residual = 7.30437245274e-62, No Iterations 11
DILUPBiCGStab:  Solving for ILambda_229_0, Initial residual = 4.28720139774e-16, Final residual = 6.36000854184e-61, No Iterations 14
DILUPBiCGStab:  Solving for ILambda_230_0, Initial residual = 4.33876006883e-16, Final residual = 7.65044807692e-61, No Iterations 15
DILUPBiCGStab:  Solving for ILambda_231_0, Initial residual = 4.2829592286e-16, Final residual = 2.86158627701e-61, No Iterations 17
DILUPBiCGStab:  Solving for ILambda_232_0, Initial residual = 4.99466468213e-16, Final residual = 2.77794118121e-61, No Iterations 17
DILUPBiCGStab:  Solving for ILambda_233_0, Initial residual = 5.19763615947e-16, Final residual = 4.72568061678e-62, No Iterations 18
DILUPBiCGStab:  Solving for ILambda_234_0, Initial residual = 4.99760156845e-16, Final residual = 1.36872193221e-61, No Iterations 18
DILUPBiCGStab:  Solving for ILambda_235_0, Initial residual = 5.11018221103e-16, Final residual = 4.12388235388e-61, No Iterations 17
DILUPBiCGStab:  Solving for ILambda_236_0, Initial residual = 4.29927526375e-16, Final residual = 6.97012189332e-61, No Iterations 17
DILUPBiCGStab:  Solving for ILambda_237_0, Initial residual = 4.4395931661e-16, Final residual = 9.1136481547e-62, No Iterations 16
DILUPBiCGStab:  Solving for ILambda_238_0, Initial residual = 4.37367638407e-16, Final residual = 4.91071533118e-61, No Iterations 15
DILUPBiCGStab:  Solving for ILambda_239_0, Initial residual = 4.34920233133e-16, Final residual = 6.58113045112e-61, No Iterations 13
DILUPBiCGStab:  Solving for ILambda_240_0, Initial residual = 2.65363995786e-16, Final residual = 1.6315712617e-62, No Iterations 9
DILUPBiCGStab:  Solving for ILambda_241_0, Initial residual = 2.74142022701e-16, Final residual = 1.52095954116e-61, No Iterations 9
DILUPBiCGStab:  Solving for ILambda_242_0, Initial residual = 2.8344216274e-16, Final residual = 8.5113343954e-63, No Iterations 9
DILUPBiCGStab:  Solving for ILambda_243_0, Initial residual = 2.80113691568e-16, Final residual = 3.21829238393e-62, No Iterations 9
DILUPBiCGStab:  Solving for ILambda_244_0, Initial residual = 2.91208595474e-16, Final residual = 9.90820898067e-62, No Iterations 9
DILUPBiCGStab:  Solving for ILambda_245_0, Initial residual = 2.93264415904e-16, Final residual = 2.17159491487e-62, No Iterations 9
DILUPBiCGStab:  Solving for ILambda_246_0, Initial residual = 2.90882274771e-16, Final residual = 1.85516244244e-62, No Iterations 10
DILUPBiCGStab:  Solving for ILambda_247_0, Initial residual = 2.57564930982e-16, Final residual = 1.85092692307e-62, No Iterations 9
DILUPBiCGStab:  Solving for ILambda_248_0, Initial residual = 2.83801115513e-16, Final residual = 7.61960810412e-62, No Iterations 9
DILUPBiCGStab:  Solving for ILambda_249_0, Initial residual = 2.6056708145e-16, Final residual = 1.42492324335e-64, No Iterations 9
DILUPBiCGStab:  Solving for ILambda_250_0, Initial residual = 2.71009343951e-16, Final residual = 6.73356135127e-62, No Iterations 9
DILUPBiCGStab:  Solving for ILambda_251_0, Initial residual = 2.69540900786e-16, Final residual = 7.03598302735e-61, No Iterations 8
DILUPBiCGStab:  Solving for ILambda_252_0, Initial residual = 2.63960816763e-16, Final residual = 4.13432674991e-61, No Iterations 10
DILUPBiCGStab:  Solving for ILambda_253_0, Initial residual = 2.77862078716e-16, Final residual = 3.48614594803e-62, No Iterations 12
DILUPBiCGStab:  Solving for ILambda_254_0, Initial residual = 2.84812709693e-16, Final residual = 7.14799701838e-61, No Iterations 12
DILUPBiCGStab:  Solving for ILambda_255_0, Initial residual = 2.80962125396e-16, Final residual = 4.16932228985e-61, No Iterations 13
DILUPBiCGStab:  Solving for ILambda_256_0, Initial residual = 2.83572691021e-16, Final residual = 2.09418269103e-62, No Iterations 13
DILUPBiCGStab:  Solving for ILambda_257_0, Initial residual = 2.85269558677e-16, Final residual = 4.67242124075e-62, No Iterations 13
DILUPBiCGStab:  Solving for ILambda_258_0, Initial residual = 2.94537066646e-16, Final residual = 4.3667404074e-62, No Iterations 13
DILUPBiCGStab:  Solving for ILambda_259_0, Initial residual = 2.76458899693e-16, Final residual = 5.34562553178e-61, No Iterations 13
DILUPBiCGStab:  Solving for ILambda_260_0, Initial residual = 3.02923508717e-16, Final residual = 5.88233232539e-61, No Iterations 12
DILUPBiCGStab:  Solving for ILambda_261_0, Initial residual = 2.64809250591e-16, Final residual = 3.42571185298e-61, No Iterations 12
DILUPBiCGStab:  Solving for ILambda_262_0, Initial residual = 2.6986722149e-16, Final residual = 7.17509390796e-63, No Iterations 11
DILUPBiCGStab:  Solving for ILambda_263_0, Initial residual = 2.63014486724e-16, Final residual = 8.29893977745e-63, No Iterations 9
DILUPBiCGStab:  Solving for ILambda_264_0, Initial residual = 2.60795505943e-16, Final residual = 3.0872464408e-64, No Iterations 2
DILUPBiCGStab:  Solving for ILambda_265_0, Initial residual = 2.72053570201e-16, Final residual = 3.19598886855e-64, No Iterations 2
DILUPBiCGStab:  Solving for ILambda_266_0, Initial residual = 2.7407675856e-16, Final residual = 3.22554227471e-64, No Iterations 2
DILUPBiCGStab:  Solving for ILambda_267_0, Initial residual = 2.98224490592e-16, Final residual = 3.57586052769e-64, No Iterations 2
DILUPBiCGStab:  Solving for ILambda_268_0, Initial residual = 2.77698918365e-16, Final residual = 3.07804970597e-64, No Iterations 2
DILUPBiCGStab:  Solving for ILambda_269_0, Initial residual = 2.76230475201e-16, Final residual = 3.05512513612e-64, No Iterations 2
DILUPBiCGStab:  Solving for ILambda_270_0, Initial residual = 2.98159226451e-16, Final residual = 3.29739676694e-64, No Iterations 2
DILUPBiCGStab:  Solving for ILambda_271_0, Initial residual = 2.83703219302e-16, Final residual = 3.42615306091e-64, No Iterations 2
DILUPBiCGStab:  Solving for ILambda_272_0, Initial residual = 2.84780077623e-16, Final residual = 3.33677466742e-64, No Iterations 2
DILUPBiCGStab:  Solving for ILambda_273_0, Initial residual = 2.74762032037e-16, Final residual = 2.91261818469e-64, No Iterations 2
DILUPBiCGStab:  Solving for ILambda_274_0, Initial residual = 2.68105089693e-16, Final residual = 2.86639424717e-64, No Iterations 2
DILUPBiCGStab:  Solving for ILambda_275_0, Initial residual = 2.67713504849e-16, Final residual = 2.94937555665e-64, No Iterations 2
DILUPBiCGStab:  Solving for ILambda_276_0, Initial residual = 2.49667969966e-16, Final residual = 1.77229713129e-62, No Iterations 9
DILUPBiCGStab:  Solving for ILambda_277_0, Initial residual = 2.86281152857e-16, Final residual = 4.19418101741e-61, No Iterations 11
DILUPBiCGStab:  Solving for ILambda_278_0, Initial residual = 2.90817010631e-16, Final residual = 2.25172854192e-61, No Iterations 12
DILUPBiCGStab:  Solving for ILambda_279_0, Initial residual = 3.09939403834e-16, Final residual = 5.36911837843e-61, No Iterations 12
DILUPBiCGStab:  Solving for ILambda_280_0, Initial residual = 2.79069465318e-16, Final residual = 5.06189180284e-61, No Iterations 13
DILUPBiCGStab:  Solving for ILambda_281_0, Initial residual = 2.77470493873e-16, Final residual = 3.90917434957e-62, No Iterations 13
DILUPBiCGStab:  Solving for ILambda_282_0, Initial residual = 2.96821311568e-16, Final residual = 4.44253696623e-62, No Iterations 13
DILUPBiCGStab:  Solving for ILambda_283_0, Initial residual = 2.87162218756e-16, Final residual = 9.23506273867e-62, No Iterations 13
DILUPBiCGStab:  Solving for ILambda_284_0, Initial residual = 2.85759039732e-16, Final residual = 6.02410599012e-61, No Iterations 13
DILUPBiCGStab:  Solving for ILambda_285_0, Initial residual = 2.68790363169e-16, Final residual = 2.41657644278e-61, No Iterations 12
DILUPBiCGStab:  Solving for ILambda_286_0, Initial residual = 2.63862920552e-16, Final residual = 4.46531945117e-62, No Iterations 12
DILUPBiCGStab:  Solving for ILambda_287_0, Initial residual = 2.77046276959e-16, Final residual = 3.13624520007e-61, No Iterations 10
min/max(T) = 1000, 1000
ExecutionTime = 18.16 s  ClockTime = 19 s

writeObjects writeObjects1.writeObjects write:
    writing object a
    writing object qem
End

