/*---------------------------------------------------------------------------*\
| =========                 |                                                 |
| \\      /  F ield         | OpenFOAM: The Open Source CFD Toolbox           |
|  \\    /   O peration     | Version:  2306                                  |
|   \\  /    A nd           | Website:  www.openfoam.com                      |
|    \\/     M anipulation  |                                                 |
\*---------------------------------------------------------------------------*/
Build  : _fbf00d6b-20230626 OPENFOAM=2306 version=2306
Arch   : "LSB;label=32;scalar=64"
Exec   : fireRADFoam_MaCFP
Date   : Mar 13 2024
Time   : 12:07:42
Host   : pop-os
PID    : 201379
I/O    : uncollated
Case   : /home/rafay/Desktop/Study/Radiative_Heat_Transfer/Local_copy_RHT2324/01_Projects/02_Rafay/Case_1_q1D_SolidAngle/new_case3/th_6-ph_12/tau_10/res_8
nProcs : 1
trapFpe: Floating point exception trapping enabled (FOAM_SIGFPE).
fileModificationChecking : Monitoring run-time modified files using timeStampMaster (fileModificationSkew 5, maxFileModificationPolls 20)
allowSystemOperations : Allowing user-supplied system call operations

// * * * * * * * * * * * * * * * * * * * * * * * * * * * * * * * * * * * * * //
Create time

Create mesh for time = 0


PIMPLE: no residual control data found. Calculations will employ 10 corrector loops

Reading thermophysical properties

Selecting thermodynamics package 
{
    type            hePsiThermo;
    mixture         singleStepReactingMixture;
    transport       sutherland;
    thermo          janaf;
    energy          sensibleEnthalpy;
    equationOfState perfectGas;
    specie          specie;
}

Selecting chemistryReader foamChemistryReader
    elements not defined in "/home/rafay/Desktop/Study/Radiative_Heat_Transfer/Local_copy_RHT2324/01_Projects/02_Rafay/Case_1_q1D_SolidAngle/new_case3/th_6-ph_12/tau_10/res_8/constant/reactions"
Fuel heat of combustion :47168962.4726
stoichiometric air-fuel ratio :14.6914056505
stoichiometric oxygen-fuel ratio :3.42181919285
Maximum products mass concentrations:
    H2O: 0.0818486943001
    CO2: 0.199950099979
    N2: 0.718201205721
Creating component thermo properties:
    multi-component carrier - 6 species
    no liquid components
    no solid components
Creating field rho


Reading field U

Reading/calculating face flux field phi

Selecting radiationModel fvDOM
Selecting absorptionEmissionModel constantAbsorptionEmission
Selecting scatterModel none
Selecting sootModel none
fvDOM : Allocated 288 rays with average orientation:
	I0 : dAve : 	(0.000387488209079 0.00591192763451 0.0163624617374) : omega : 	0.0175372336349 : d : 	(0.0169275754541 0.25826489366 0.965925826289)
	I1 : dAve : 	(0.00115583459655 0.00581077291359 0.0163624617374) : omega : 	0.0175372336349 : d : 	(0.050493090853 0.253845909725 0.965925826289)
	I2 : dAve : 	(0.00190440433361 0.00561019425706 0.0163624617374) : omega : 	0.0175372336349 : d : 	(0.083194655468 0.245083551895 0.965925826289)
	I3 : dAve : 	(0.00262038918453 0.00531362362136 0.0163624617374) : omega : 	0.0175372336349 : d : 	(0.114472736462 0.232127746542 0.965925826289)
	I4 : dAve : 	(0.00329153844998 0.00492613541228 0.0163624617374) : omega : 	0.0175372336349 : d : 	(0.143792157198 0.215200171088 0.965925826289)
	I5 : dAve : 	(0.00390636857998 0.00445435966052 0.0163624617374) : omega : 	0.0175372336349 : d : 	(0.170651254257 0.194590461042 0.965925826289)
	I6 : dAve : 	(0.00445435966052 0.00390636857998 0.0163624617374) : omega : 	0.0175372336349 : d : 	(0.194590461042 0.170651254257 0.965925826289)
	I7 : dAve : 	(0.00492613541228 0.00329153844998 0.0163624617374) : omega : 	0.0175372336349 : d : 	(0.215200171088 0.143792157198 0.965925826289)
	I8 : dAve : 	(0.00531362362136 0.00262038918453 0.0163624617374) : omega : 	0.0175372336349 : d : 	(0.232127746542 0.114472736462 0.965925826289)
	I9 : dAve : 	(0.00561019425706 0.00190440433361 0.0163624617374) : omega : 	0.0175372336349 : d : 	(0.245083551895 0.083194655468 0.965925826289)
	I10 : dAve : 	(0.00581077291359 0.00115583459655 0.0163624617374) : omega : 	0.0175372336349 : d : 	(0.253845909725 0.050493090853 0.965925826289)
	I11 : dAve : 	(0.00591192763451 0.000387488209079 0.0163624617374) : omega : 	0.0175372336349 : d : 	(0.25826489366 0.0169275754541 0.965925826289)
	I12 : dAve : 	(0.00591192763451 -0.000387488209079 0.0163624617374) : omega : 	0.0175372336349 : d : 	(0.25826489366 -0.0169275754541 0.965925826289)
	I13 : dAve : 	(0.00581077291359 -0.00115583459655 0.0163624617374) : omega : 	0.0175372336349 : d : 	(0.253845909725 -0.050493090853 0.965925826289)
	I14 : dAve : 	(0.00561019425706 -0.00190440433361 0.0163624617374) : omega : 	0.0175372336349 : d : 	(0.245083551895 -0.083194655468 0.965925826289)
	I15 : dAve : 	(0.00531362362136 -0.00262038918453 0.0163624617374) : omega : 	0.0175372336349 : d : 	(0.232127746542 -0.114472736462 0.965925826289)
	I16 : dAve : 	(0.00492613541228 -0.00329153844998 0.0163624617374) : omega : 	0.0175372336349 : d : 	(0.215200171088 -0.143792157198 0.965925826289)
	I17 : dAve : 	(0.00445435966052 -0.00390636857998 0.0163624617374) : omega : 	0.0175372336349 : d : 	(0.194590461042 -0.170651254257 0.965925826289)
	I18 : dAve : 	(0.00390636857998 -0.00445435966052 0.0163624617374) : omega : 	0.0175372336349 : d : 	(0.170651254257 -0.194590461042 0.965925826289)
	I19 : dAve : 	(0.00329153844998 -0.00492613541228 0.0163624617374) : omega : 	0.0175372336349 : d : 	(0.143792157198 -0.215200171088 0.965925826289)
	I20 : dAve : 	(0.00262038918453 -0.00531362362136 0.0163624617374) : omega : 	0.0175372336349 : d : 	(0.114472736462 -0.232127746542 0.965925826289)
	I21 : dAve : 	(0.00190440433361 -0.00561019425706 0.0163624617374) : omega : 	0.0175372336349 : d : 	(0.083194655468 -0.245083551895 0.965925826289)
	I22 : dAve : 	(0.00115583459655 -0.00581077291359 0.0163624617374) : omega : 	0.0175372336349 : d : 	(0.050493090853 -0.253845909725 0.965925826289)
	I23 : dAve : 	(0.000387488209079 -0.00591192763451 0.0163624617374) : omega : 	0.0175372336349 : d : 	(0.0169275754541 -0.25826489366 0.965925826289)
	I24 : dAve : 	(-0.000387488209079 -0.00591192763451 0.0163624617374) : omega : 	0.0175372336349 : d : 	(-0.0169275754541 -0.25826489366 0.965925826289)
	I25 : dAve : 	(-0.00115583459655 -0.00581077291359 0.0163624617374) : omega : 	0.0175372336349 : d : 	(-0.050493090853 -0.253845909725 0.965925826289)
	I26 : dAve : 	(-0.00190440433361 -0.00561019425706 0.0163624617374) : omega : 	0.0175372336349 : d : 	(-0.083194655468 -0.245083551895 0.965925826289)
	I27 : dAve : 	(-0.00262038918453 -0.00531362362136 0.0163624617374) : omega : 	0.0175372336349 : d : 	(-0.114472736462 -0.232127746542 0.965925826289)
	I28 : dAve : 	(-0.00329153844998 -0.00492613541228 0.0163624617374) : omega : 	0.0175372336349 : d : 	(-0.143792157198 -0.215200171088 0.965925826289)
	I29 : dAve : 	(-0.00390636857998 -0.00445435966052 0.0163624617374) : omega : 	0.0175372336349 : d : 	(-0.170651254257 -0.194590461042 0.965925826289)
	I30 : dAve : 	(-0.00445435966052 -0.00390636857998 0.0163624617374) : omega : 	0.0175372336349 : d : 	(-0.194590461042 -0.170651254257 0.965925826289)
	I31 : dAve : 	(-0.00492613541228 -0.00329153844998 0.0163624617374) : omega : 	0.0175372336349 : d : 	(-0.215200171088 -0.143792157198 0.965925826289)
	I32 : dAve : 	(-0.00531362362136 -0.00262038918453 0.0163624617374) : omega : 	0.0175372336349 : d : 	(-0.232127746542 -0.114472736462 0.965925826289)
	I33 : dAve : 	(-0.00561019425706 -0.00190440433361 0.0163624617374) : omega : 	0.0175372336349 : d : 	(-0.245083551895 -0.083194655468 0.965925826289)
	I34 : dAve : 	(-0.00581077291359 -0.00115583459655 0.0163624617374) : omega : 	0.0175372336349 : d : 	(-0.253845909725 -0.050493090853 0.965925826289)
	I35 : dAve : 	(-0.00591192763451 -0.000387488209079 0.0163624617374) : omega : 	0.0175372336349 : d : 	(-0.25826489366 -0.0169275754541 0.965925826289)
	I36 : dAve : 	(-0.00591192763451 0.000387488209079 0.0163624617374) : omega : 	0.0175372336349 : d : 	(-0.25826489366 0.0169275754541 0.965925826289)
	I37 : dAve : 	(-0.00581077291359 0.00115583459655 0.0163624617374) : omega : 	0.0175372336349 : d : 	(-0.253845909725 0.050493090853 0.965925826289)
	I38 : dAve : 	(-0.00561019425706 0.00190440433361 0.0163624617374) : omega : 	0.0175372336349 : d : 	(-0.245083551895 0.083194655468 0.965925826289)
	I39 : dAve : 	(-0.00531362362136 0.00262038918453 0.0163624617374) : omega : 	0.0175372336349 : d : 	(-0.232127746542 0.114472736462 0.965925826289)
	I40 : dAve : 	(-0.00492613541228 0.00329153844998 0.0163624617374) : omega : 	0.0175372336349 : d : 	(-0.215200171088 0.143792157198 0.965925826289)
	I41 : dAve : 	(-0.00445435966052 0.00390636857998 0.0163624617374) : omega : 	0.0175372336349 : d : 	(-0.194590461042 0.170651254257 0.965925826289)
	I42 : dAve : 	(-0.00390636857998 0.00445435966052 0.0163624617374) : omega : 	0.0175372336349 : d : 	(-0.170651254257 0.194590461042 0.965925826289)
	I43 : dAve : 	(-0.00329153844998 0.00492613541228 0.0163624617374) : omega : 	0.0175372336349 : d : 	(-0.143792157198 0.215200171088 0.965925826289)
	I44 : dAve : 	(-0.00262038918453 0.00531362362136 0.0163624617374) : omega : 	0.0175372336349 : d : 	(-0.114472736462 0.232127746542 0.965925826289)
	I45 : dAve : 	(-0.00190440433361 0.00561019425706 0.0163624617374) : omega : 	0.0175372336349 : d : 	(-0.083194655468 0.245083551895 0.965925826289)
	I46 : dAve : 	(-0.00115583459655 0.00581077291359 0.0163624617374) : omega : 	0.0175372336349 : d : 	(-0.050493090853 0.253845909725 0.965925826289)
	I47 : dAve : 	(-0.000387488209079 0.00591192763451 0.0163624617374) : omega : 	0.0175372336349 : d : 	(-0.0169275754541 0.25826489366 0.965925826289)
	I48 : dAve : 	(0.00223973005487 0.034171677215 0.0327249234749) : omega : 	0.0479126133149 : d : 	(0.0462469961895 0.70559281129 0.707106781187)
	I49 : dAve : 	(0.00668086776241 0.0335869903436 0.0327249234749) : omega : 	0.0479126133149 : d : 	(0.137949689641 0.693519922661 0.707106781187)
	I50 : dAve : 	(0.0110076939702 0.0324276207555 0.0327249234749) : omega : 	0.0479126133149 : d : 	(0.227292025657 0.669580715876 0.707106781187)
	I51 : dAve : 	(0.0151461754823 0.0307134055855 0.0327249234749) : omega : 	0.0479126133149 : d : 	(0.312745332096 0.634184797399 0.707106781187)
	I52 : dAve : 	(0.0190255017326 0.0284736755306 0.0327249234749) : omega : 	0.0479126133149 : d : 	(0.392847479194 0.58793780121 0.707106781187)
	I53 : dAve : 	(0.0225792963734 0.025746752993 0.0327249234749) : omega : 	0.0479126133149 : d : 	(0.466227897004 0.531631026234 0.707106781187)
	I54 : dAve : 	(0.025746752993 0.0225792963734 0.0327249234749) : omega : 	0.0479126133149 : d : 	(0.531631026234 0.466227897004 0.707106781187)
	I55 : dAve : 	(0.0284736755306 0.0190255017326 0.0327249234749) : omega : 	0.0479126133149 : d : 	(0.58793780121 0.392847479194 0.707106781187)
	I56 : dAve : 	(0.0307134055855 0.0151461754823 0.0327249234749) : omega : 	0.0479126133149 : d : 	(0.634184797399 0.312745332096 0.707106781187)
	I57 : dAve : 	(0.0324276207555 0.0110076939702 0.0327249234749) : omega : 	0.0479126133149 : d : 	(0.669580715876 0.227292025657 0.707106781187)
	I58 : dAve : 	(0.0335869903436 0.00668086776241 0.0327249234749) : omega : 	0.0479126133149 : d : 	(0.693519922661 0.137949689641 0.707106781187)
	I59 : dAve : 	(0.034171677215 0.00223973005487 0.0327249234749) : omega : 	0.0479126133149 : d : 	(0.70559281129 0.0462469961895 0.707106781187)
	I60 : dAve : 	(0.034171677215 -0.00223973005487 0.0327249234749) : omega : 	0.0479126133149 : d : 	(0.70559281129 -0.0462469961895 0.707106781187)
	I61 : dAve : 	(0.0335869903436 -0.00668086776241 0.0327249234749) : omega : 	0.0479126133149 : d : 	(0.693519922661 -0.137949689641 0.707106781187)
	I62 : dAve : 	(0.0324276207555 -0.0110076939702 0.0327249234749) : omega : 	0.0479126133149 : d : 	(0.669580715876 -0.227292025657 0.707106781187)
	I63 : dAve : 	(0.0307134055855 -0.0151461754823 0.0327249234749) : omega : 	0.0479126133149 : d : 	(0.634184797399 -0.312745332096 0.707106781187)
	I64 : dAve : 	(0.0284736755306 -0.0190255017326 0.0327249234749) : omega : 	0.0479126133149 : d : 	(0.58793780121 -0.392847479194 0.707106781187)
	I65 : dAve : 	(0.025746752993 -0.0225792963734 0.0327249234749) : omega : 	0.0479126133149 : d : 	(0.531631026234 -0.466227897004 0.707106781187)
	I66 : dAve : 	(0.0225792963734 -0.025746752993 0.0327249234749) : omega : 	0.0479126133149 : d : 	(0.466227897004 -0.531631026234 0.707106781187)
	I67 : dAve : 	(0.0190255017326 -0.0284736755306 0.0327249234749) : omega : 	0.0479126133149 : d : 	(0.392847479194 -0.58793780121 0.707106781187)
	I68 : dAve : 	(0.0151461754823 -0.0307134055855 0.0327249234749) : omega : 	0.0479126133149 : d : 	(0.312745332096 -0.634184797399 0.707106781187)
	I69 : dAve : 	(0.0110076939702 -0.0324276207555 0.0327249234749) : omega : 	0.0479126133149 : d : 	(0.227292025657 -0.669580715876 0.707106781187)
	I70 : dAve : 	(0.00668086776241 -0.0335869903436 0.0327249234749) : omega : 	0.0479126133149 : d : 	(0.137949689641 -0.693519922661 0.707106781187)
	I71 : dAve : 	(0.00223973005487 -0.034171677215 0.0327249234749) : omega : 	0.0479126133149 : d : 	(0.0462469961895 -0.70559281129 0.707106781187)
	I72 : dAve : 	(-0.00223973005487 -0.034171677215 0.0327249234749) : omega : 	0.0479126133149 : d : 	(-0.0462469961895 -0.70559281129 0.707106781187)
	I73 : dAve : 	(-0.00668086776241 -0.0335869903436 0.0327249234749) : omega : 	0.0479126133149 : d : 	(-0.137949689641 -0.693519922661 0.707106781187)
	I74 : dAve : 	(-0.0110076939702 -0.0324276207555 0.0327249234749) : omega : 	0.0479126133149 : d : 	(-0.227292025657 -0.669580715876 0.707106781187)
	I75 : dAve : 	(-0.0151461754823 -0.0307134055855 0.0327249234749) : omega : 	0.0479126133149 : d : 	(-0.312745332096 -0.634184797399 0.707106781187)
	I76 : dAve : 	(-0.0190255017326 -0.0284736755306 0.0327249234749) : omega : 	0.0479126133149 : d : 	(-0.392847479194 -0.58793780121 0.707106781187)
	I77 : dAve : 	(-0.0225792963734 -0.025746752993 0.0327249234749) : omega : 	0.0479126133149 : d : 	(-0.466227897004 -0.531631026234 0.707106781187)
	I78 : dAve : 	(-0.025746752993 -0.0225792963734 0.0327249234749) : omega : 	0.0479126133149 : d : 	(-0.531631026234 -0.466227897004 0.707106781187)
	I79 : dAve : 	(-0.0284736755306 -0.0190255017326 0.0327249234749) : omega : 	0.0479126133149 : d : 	(-0.58793780121 -0.392847479194 0.707106781187)
	I80 : dAve : 	(-0.0307134055855 -0.0151461754823 0.0327249234749) : omega : 	0.0479126133149 : d : 	(-0.634184797399 -0.312745332096 0.707106781187)
	I81 : dAve : 	(-0.0324276207555 -0.0110076939702 0.0327249234749) : omega : 	0.0479126133149 : d : 	(-0.669580715876 -0.227292025657 0.707106781187)
	I82 : dAve : 	(-0.0335869903436 -0.00668086776241 0.0327249234749) : omega : 	0.0479126133149 : d : 	(-0.693519922661 -0.137949689641 0.707106781187)
	I83 : dAve : 	(-0.034171677215 -0.00223973005487 0.0327249234749) : omega : 	0.0479126133149 : d : 	(-0.70559281129 -0.0462469961895 0.707106781187)
	I84 : dAve : 	(-0.034171677215 0.00223973005487 0.0327249234749) : omega : 	0.0479126133149 : d : 	(-0.70559281129 0.0462469961895 0.707106781187)
	I85 : dAve : 	(-0.0335869903436 0.00668086776241 0.0327249234749) : omega : 	0.0479126133149 : d : 	(-0.693519922661 0.137949689641 0.707106781187)
	I86 : dAve : 	(-0.0324276207555 0.0110076939702 0.0327249234749) : omega : 	0.0479126133149 : d : 	(-0.669580715876 0.227292025657 0.707106781187)
	I87 : dAve : 	(-0.0307134055855 0.0151461754823 0.0327249234749) : omega : 	0.0479126133149 : d : 	(-0.634184797399 0.312745332096 0.707106781187)
	I88 : dAve : 	(-0.0284736755306 0.0190255017326 0.0327249234749) : omega : 	0.0479126133149 : d : 	(-0.58793780121 0.392847479194 0.707106781187)
	I89 : dAve : 	(-0.025746752993 0.0225792963734 0.0327249234749) : omega : 	0.0479126133149 : d : 	(-0.531631026234 0.466227897004 0.707106781187)
	I90 : dAve : 	(-0.0225792963734 0.025746752993 0.0327249234749) : omega : 	0.0479126133149 : d : 	(-0.466227897004 0.531631026234 0.707106781187)
	I91 : dAve : 	(-0.0190255017326 0.0284736755306 0.0327249234749) : omega : 	0.0479126133149 : d : 	(-0.392847479194 0.58793780121 0.707106781187)
	I92 : dAve : 	(-0.0151461754823 0.0307134055855 0.0327249234749) : omega : 	0.0479126133149 : d : 	(-0.312745332096 0.634184797399 0.707106781187)
	I93 : dAve : 	(-0.0110076939702 0.0324276207555 0.0327249234749) : omega : 	0.0479126133149 : d : 	(-0.227292025657 0.669580715876 0.707106781187)
	I94 : dAve : 	(-0.00668086776241 0.0335869903436 0.0327249234749) : omega : 	0.0479126133149 : d : 	(-0.137949689641 0.693519922661 0.707106781187)
	I95 : dAve : 	(-0.00223973005487 0.034171677215 0.0327249234749) : omega : 	0.0479126133149 : d : 	(-0.0462469961895 0.70559281129 0.707106781187)
	I96 : dAve : 	(0.00409197190067 0.0624314267954 0.0163624617374) : omega : 	0.0654498469498 : d : 	(0.0631745716435 0.963857704949 0.258819045103)
	I97 : dAve : 	(0.0122059009283 0.0613632077737 0.0163624617374) : omega : 	0.0654498469498 : d : 	(0.188442780494 0.947365832386 0.258819045103)
	I98 : dAve : 	(0.0201109836069 0.0592450472539 0.0163624617374) : omega : 	0.0654498469498 : d : 	(0.310486681125 0.914664267771 0.258819045103)
	I99 : dAve : 	(0.0276719617802 0.0561131875497 0.0163624617374) : omega : 	0.0654498469498 : d : 	(0.427218068558 0.866312543941 0.258819045103)
	I100 : dAve : 	(0.0347594650153 0.052021215649 0.0163624617374) : omega : 	0.0654498469498 : d : 	(0.536639636391 0.803137972298 0.258819045103)
	I101 : dAve : 	(0.0412522241668 0.0470391463256 0.0163624617374) : omega : 	0.0654498469498 : d : 	(0.636879151261 0.726221487276 0.258819045103)
	I102 : dAve : 	(0.0470391463256 0.0412522241668 0.0163624617374) : omega : 	0.0654498469498 : d : 	(0.726221487276 0.636879151261 0.258819045103)
	I103 : dAve : 	(0.052021215649 0.0347594650153 0.0163624617374) : omega : 	0.0654498469498 : d : 	(0.803137972298 0.536639636391 0.258819045103)
	I104 : dAve : 	(0.0561131875497 0.0276719617802 0.0163624617374) : omega : 	0.0654498469498 : d : 	(0.866312543941 0.427218068558 0.258819045103)
	I105 : dAve : 	(0.0592450472539 0.0201109836069 0.0163624617374) : omega : 	0.0654498469498 : d : 	(0.914664267771 0.310486681125 0.258819045103)
	I106 : dAve : 	(0.0613632077737 0.0122059009283 0.0163624617374) : omega : 	0.0654498469498 : d : 	(0.947365832386 0.188442780494 0.258819045103)
	I107 : dAve : 	(0.0624314267954 0.00409197190067 0.0163624617374) : omega : 	0.0654498469498 : d : 	(0.963857704949 0.0631745716435 0.258819045103)
	I108 : dAve : 	(0.0624314267954 -0.00409197190067 0.0163624617374) : omega : 	0.0654498469498 : d : 	(0.963857704949 -0.0631745716435 0.258819045103)
	I109 : dAve : 	(0.0613632077737 -0.0122059009283 0.0163624617374) : omega : 	0.0654498469498 : d : 	(0.947365832386 -0.188442780494 0.258819045103)
	I110 : dAve : 	(0.0592450472539 -0.0201109836069 0.0163624617374) : omega : 	0.0654498469498 : d : 	(0.914664267771 -0.310486681125 0.258819045103)
	I111 : dAve : 	(0.0561131875497 -0.0276719617802 0.0163624617374) : omega : 	0.0654498469498 : d : 	(0.866312543941 -0.427218068558 0.258819045103)
	I112 : dAve : 	(0.052021215649 -0.0347594650153 0.0163624617374) : omega : 	0.0654498469498 : d : 	(0.803137972298 -0.536639636391 0.258819045103)
	I113 : dAve : 	(0.0470391463256 -0.0412522241668 0.0163624617374) : omega : 	0.0654498469498 : d : 	(0.726221487276 -0.636879151261 0.258819045103)
	I114 : dAve : 	(0.0412522241668 -0.0470391463256 0.0163624617374) : omega : 	0.0654498469498 : d : 	(0.636879151261 -0.726221487276 0.258819045103)
	I115 : dAve : 	(0.0347594650153 -0.052021215649 0.0163624617374) : omega : 	0.0654498469498 : d : 	(0.536639636391 -0.803137972298 0.258819045103)
	I116 : dAve : 	(0.0276719617802 -0.0561131875497 0.0163624617374) : omega : 	0.0654498469498 : d : 	(0.427218068558 -0.866312543941 0.258819045103)
	I117 : dAve : 	(0.0201109836069 -0.0592450472539 0.0163624617374) : omega : 	0.0654498469498 : d : 	(0.310486681125 -0.914664267771 0.258819045103)
	I118 : dAve : 	(0.0122059009283 -0.0613632077737 0.0163624617374) : omega : 	0.0654498469498 : d : 	(0.188442780494 -0.947365832386 0.258819045103)
	I119 : dAve : 	(0.00409197190067 -0.0624314267954 0.0163624617374) : omega : 	0.0654498469498 : d : 	(0.0631745716435 -0.963857704949 0.258819045103)
	I120 : dAve : 	(-0.00409197190067 -0.0624314267954 0.0163624617374) : omega : 	0.0654498469498 : d : 	(-0.0631745716435 -0.963857704949 0.258819045103)
	I121 : dAve : 	(-0.0122059009283 -0.0613632077737 0.0163624617374) : omega : 	0.0654498469498 : d : 	(-0.188442780494 -0.947365832386 0.258819045103)
	I122 : dAve : 	(-0.0201109836069 -0.0592450472539 0.0163624617374) : omega : 	0.0654498469498 : d : 	(-0.310486681125 -0.914664267771 0.258819045103)
	I123 : dAve : 	(-0.0276719617802 -0.0561131875497 0.0163624617374) : omega : 	0.0654498469498 : d : 	(-0.427218068558 -0.866312543941 0.258819045103)
	I124 : dAve : 	(-0.0347594650153 -0.052021215649 0.0163624617374) : omega : 	0.0654498469498 : d : 	(-0.536639636391 -0.803137972298 0.258819045103)
	I125 : dAve : 	(-0.0412522241668 -0.0470391463256 0.0163624617374) : omega : 	0.0654498469498 : d : 	(-0.636879151261 -0.726221487276 0.258819045103)
	I126 : dAve : 	(-0.0470391463256 -0.0412522241668 0.0163624617374) : omega : 	0.0654498469498 : d : 	(-0.726221487276 -0.636879151261 0.258819045103)
	I127 : dAve : 	(-0.052021215649 -0.0347594650153 0.0163624617374) : omega : 	0.0654498469498 : d : 	(-0.803137972298 -0.536639636391 0.258819045103)
	I128 : dAve : 	(-0.0561131875497 -0.0276719617802 0.0163624617374) : omega : 	0.0654498469498 : d : 	(-0.866312543941 -0.427218068558 0.258819045103)
	I129 : dAve : 	(-0.0592450472539 -0.0201109836069 0.0163624617374) : omega : 	0.0654498469498 : d : 	(-0.914664267771 -0.310486681125 0.258819045103)
	I130 : dAve : 	(-0.0613632077737 -0.0122059009283 0.0163624617374) : omega : 	0.0654498469498 : d : 	(-0.947365832386 -0.188442780494 0.258819045103)
	I131 : dAve : 	(-0.0624314267954 -0.00409197190067 0.0163624617374) : omega : 	0.0654498469498 : d : 	(-0.963857704949 -0.0631745716435 0.258819045103)
	I132 : dAve : 	(-0.0624314267954 0.00409197190067 0.0163624617374) : omega : 	0.0654498469498 : d : 	(-0.963857704949 0.0631745716435 0.258819045103)
	I133 : dAve : 	(-0.0613632077737 0.0122059009283 0.0163624617374) : omega : 	0.0654498469498 : d : 	(-0.947365832386 0.188442780494 0.258819045103)
	I134 : dAve : 	(-0.0592450472539 0.0201109836069 0.0163624617374) : omega : 	0.0654498469498 : d : 	(-0.914664267771 0.310486681125 0.258819045103)
	I135 : dAve : 	(-0.0561131875497 0.0276719617802 0.0163624617374) : omega : 	0.0654498469498 : d : 	(-0.866312543941 0.427218068558 0.258819045103)
	I136 : dAve : 	(-0.052021215649 0.0347594650153 0.0163624617374) : omega : 	0.0654498469498 : d : 	(-0.803137972298 0.536639636391 0.258819045103)
	I137 : dAve : 	(-0.0470391463256 0.0412522241668 0.0163624617374) : omega : 	0.0654498469498 : d : 	(-0.726221487276 0.636879151261 0.258819045103)
	I138 : dAve : 	(-0.0412522241668 0.0470391463256 0.0163624617374) : omega : 	0.0654498469498 : d : 	(-0.636879151261 0.726221487276 0.258819045103)
	I139 : dAve : 	(-0.0347594650153 0.052021215649 0.0163624617374) : omega : 	0.0654498469498 : d : 	(-0.536639636391 0.803137972298 0.258819045103)
	I140 : dAve : 	(-0.0276719617802 0.0561131875497 0.0163624617374) : omega : 	0.0654498469498 : d : 	(-0.427218068558 0.866312543941 0.258819045103)
	I141 : dAve : 	(-0.0201109836069 0.0592450472539 0.0163624617374) : omega : 	0.0654498469498 : d : 	(-0.310486681125 0.914664267771 0.258819045103)
	I142 : dAve : 	(-0.0122059009283 0.0613632077737 0.0163624617374) : omega : 	0.0654498469498 : d : 	(-0.188442780494 0.947365832386 0.258819045103)
	I143 : dAve : 	(-0.00409197190067 0.0624314267954 0.0163624617374) : omega : 	0.0654498469498 : d : 	(-0.0631745716435 0.963857704949 0.258819045103)
	I144 : dAve : 	(0.00409197190067 0.0624314267954 -0.0163624617374) : omega : 	0.0654498469498 : d : 	(0.0631745716435 0.963857704949 -0.258819045103)
	I145 : dAve : 	(0.0122059009283 0.0613632077737 -0.0163624617374) : omega : 	0.0654498469498 : d : 	(0.188442780494 0.947365832386 -0.258819045103)
	I146 : dAve : 	(0.0201109836069 0.0592450472539 -0.0163624617374) : omega : 	0.0654498469498 : d : 	(0.310486681125 0.914664267771 -0.258819045103)
	I147 : dAve : 	(0.0276719617802 0.0561131875497 -0.0163624617374) : omega : 	0.0654498469498 : d : 	(0.427218068558 0.866312543941 -0.258819045103)
	I148 : dAve : 	(0.0347594650153 0.052021215649 -0.0163624617374) : omega : 	0.0654498469498 : d : 	(0.536639636391 0.803137972298 -0.258819045103)
	I149 : dAve : 	(0.0412522241668 0.0470391463256 -0.0163624617374) : omega : 	0.0654498469498 : d : 	(0.636879151261 0.726221487276 -0.258819045103)
	I150 : dAve : 	(0.0470391463256 0.0412522241668 -0.0163624617374) : omega : 	0.0654498469498 : d : 	(0.726221487276 0.636879151261 -0.258819045103)
	I151 : dAve : 	(0.052021215649 0.0347594650153 -0.0163624617374) : omega : 	0.0654498469498 : d : 	(0.803137972298 0.536639636391 -0.258819045103)
	I152 : dAve : 	(0.0561131875497 0.0276719617802 -0.0163624617374) : omega : 	0.0654498469498 : d : 	(0.866312543941 0.427218068558 -0.258819045103)
	I153 : dAve : 	(0.0592450472539 0.0201109836069 -0.0163624617374) : omega : 	0.0654498469498 : d : 	(0.914664267771 0.310486681125 -0.258819045103)
	I154 : dAve : 	(0.0613632077737 0.0122059009283 -0.0163624617374) : omega : 	0.0654498469498 : d : 	(0.947365832386 0.188442780494 -0.258819045103)
	I155 : dAve : 	(0.0624314267954 0.00409197190067 -0.0163624617374) : omega : 	0.0654498469498 : d : 	(0.963857704949 0.0631745716435 -0.258819045103)
	I156 : dAve : 	(0.0624314267954 -0.00409197190067 -0.0163624617374) : omega : 	0.0654498469498 : d : 	(0.963857704949 -0.0631745716435 -0.258819045103)
	I157 : dAve : 	(0.0613632077737 -0.0122059009283 -0.0163624617374) : omega : 	0.0654498469498 : d : 	(0.947365832386 -0.188442780494 -0.258819045103)
	I158 : dAve : 	(0.0592450472539 -0.0201109836069 -0.0163624617374) : omega : 	0.0654498469498 : d : 	(0.914664267771 -0.310486681125 -0.258819045103)
	I159 : dAve : 	(0.0561131875497 -0.0276719617802 -0.0163624617374) : omega : 	0.0654498469498 : d : 	(0.866312543941 -0.427218068558 -0.258819045103)
	I160 : dAve : 	(0.052021215649 -0.0347594650153 -0.0163624617374) : omega : 	0.0654498469498 : d : 	(0.803137972298 -0.536639636391 -0.258819045103)
	I161 : dAve : 	(0.0470391463256 -0.0412522241668 -0.0163624617374) : omega : 	0.0654498469498 : d : 	(0.726221487276 -0.636879151261 -0.258819045103)
	I162 : dAve : 	(0.0412522241668 -0.0470391463256 -0.0163624617374) : omega : 	0.0654498469498 : d : 	(0.636879151261 -0.726221487276 -0.258819045103)
	I163 : dAve : 	(0.0347594650153 -0.052021215649 -0.0163624617374) : omega : 	0.0654498469498 : d : 	(0.536639636391 -0.803137972298 -0.258819045103)
	I164 : dAve : 	(0.0276719617802 -0.0561131875497 -0.0163624617374) : omega : 	0.0654498469498 : d : 	(0.427218068558 -0.866312543941 -0.258819045103)
	I165 : dAve : 	(0.0201109836069 -0.0592450472539 -0.0163624617374) : omega : 	0.0654498469498 : d : 	(0.310486681125 -0.914664267771 -0.258819045103)
	I166 : dAve : 	(0.0122059009283 -0.0613632077737 -0.0163624617374) : omega : 	0.0654498469498 : d : 	(0.188442780494 -0.947365832386 -0.258819045103)
	I167 : dAve : 	(0.00409197190067 -0.0624314267954 -0.0163624617374) : omega : 	0.0654498469498 : d : 	(0.0631745716435 -0.963857704949 -0.258819045103)
	I168 : dAve : 	(-0.00409197190067 -0.0624314267954 -0.0163624617374) : omega : 	0.0654498469498 : d : 	(-0.0631745716435 -0.963857704949 -0.258819045103)
	I169 : dAve : 	(-0.0122059009283 -0.0613632077737 -0.0163624617374) : omega : 	0.0654498469498 : d : 	(-0.188442780494 -0.947365832386 -0.258819045103)
	I170 : dAve : 	(-0.0201109836069 -0.0592450472539 -0.0163624617374) : omega : 	0.0654498469498 : d : 	(-0.310486681125 -0.914664267771 -0.258819045103)
	I171 : dAve : 	(-0.0276719617802 -0.0561131875497 -0.0163624617374) : omega : 	0.0654498469498 : d : 	(-0.427218068558 -0.866312543941 -0.258819045103)
	I172 : dAve : 	(-0.0347594650153 -0.052021215649 -0.0163624617374) : omega : 	0.0654498469498 : d : 	(-0.536639636391 -0.803137972298 -0.258819045103)
	I173 : dAve : 	(-0.0412522241668 -0.0470391463256 -0.0163624617374) : omega : 	0.0654498469498 : d : 	(-0.636879151261 -0.726221487276 -0.258819045103)
	I174 : dAve : 	(-0.0470391463256 -0.0412522241668 -0.0163624617374) : omega : 	0.0654498469498 : d : 	(-0.726221487276 -0.636879151261 -0.258819045103)
	I175 : dAve : 	(-0.052021215649 -0.0347594650153 -0.0163624617374) : omega : 	0.0654498469498 : d : 	(-0.803137972298 -0.536639636391 -0.258819045103)
	I176 : dAve : 	(-0.0561131875497 -0.0276719617802 -0.0163624617374) : omega : 	0.0654498469498 : d : 	(-0.866312543941 -0.427218068558 -0.258819045103)
	I177 : dAve : 	(-0.0592450472539 -0.0201109836069 -0.0163624617374) : omega : 	0.0654498469498 : d : 	(-0.914664267771 -0.310486681125 -0.258819045103)
	I178 : dAve : 	(-0.0613632077737 -0.0122059009283 -0.0163624617374) : omega : 	0.0654498469498 : d : 	(-0.947365832386 -0.188442780494 -0.258819045103)
	I179 : dAve : 	(-0.0624314267954 -0.00409197190067 -0.0163624617374) : omega : 	0.0654498469498 : d : 	(-0.963857704949 -0.0631745716435 -0.258819045103)
	I180 : dAve : 	(-0.0624314267954 0.00409197190067 -0.0163624617374) : omega : 	0.0654498469498 : d : 	(-0.963857704949 0.0631745716435 -0.258819045103)
	I181 : dAve : 	(-0.0613632077737 0.0122059009283 -0.0163624617374) : omega : 	0.0654498469498 : d : 	(-0.947365832386 0.188442780494 -0.258819045103)
	I182 : dAve : 	(-0.0592450472539 0.0201109836069 -0.0163624617374) : omega : 	0.0654498469498 : d : 	(-0.914664267771 0.310486681125 -0.258819045103)
	I183 : dAve : 	(-0.0561131875497 0.0276719617802 -0.0163624617374) : omega : 	0.0654498469498 : d : 	(-0.866312543941 0.427218068558 -0.258819045103)
	I184 : dAve : 	(-0.052021215649 0.0347594650153 -0.0163624617374) : omega : 	0.0654498469498 : d : 	(-0.803137972298 0.536639636391 -0.258819045103)
	I185 : dAve : 	(-0.0470391463256 0.0412522241668 -0.0163624617374) : omega : 	0.0654498469498 : d : 	(-0.726221487276 0.636879151261 -0.258819045103)
	I186 : dAve : 	(-0.0412522241668 0.0470391463256 -0.0163624617374) : omega : 	0.0654498469498 : d : 	(-0.636879151261 0.726221487276 -0.258819045103)
	I187 : dAve : 	(-0.0347594650153 0.052021215649 -0.0163624617374) : omega : 	0.0654498469498 : d : 	(-0.536639636391 0.803137972298 -0.258819045103)
	I188 : dAve : 	(-0.0276719617802 0.0561131875497 -0.0163624617374) : omega : 	0.0654498469498 : d : 	(-0.427218068558 0.866312543941 -0.258819045103)
	I189 : dAve : 	(-0.0201109836069 0.0592450472539 -0.0163624617374) : omega : 	0.0654498469498 : d : 	(-0.310486681125 0.914664267771 -0.258819045103)
	I190 : dAve : 	(-0.0122059009283 0.0613632077737 -0.0163624617374) : omega : 	0.0654498469498 : d : 	(-0.188442780494 0.947365832386 -0.258819045103)
	I191 : dAve : 	(-0.00409197190067 0.0624314267954 -0.0163624617374) : omega : 	0.0654498469498 : d : 	(-0.0631745716435 0.963857704949 -0.258819045103)
	I192 : dAve : 	(0.00223973005487 0.034171677215 -0.0327249234749) : omega : 	0.0479126133149 : d : 	(0.0462469961895 0.70559281129 -0.707106781187)
	I193 : dAve : 	(0.00668086776241 0.0335869903436 -0.0327249234749) : omega : 	0.0479126133149 : d : 	(0.137949689641 0.693519922661 -0.707106781187)
	I194 : dAve : 	(0.0110076939702 0.0324276207555 -0.0327249234749) : omega : 	0.0479126133149 : d : 	(0.227292025657 0.669580715876 -0.707106781187)
	I195 : dAve : 	(0.0151461754823 0.0307134055855 -0.0327249234749) : omega : 	0.0479126133149 : d : 	(0.312745332096 0.634184797399 -0.707106781187)
	I196 : dAve : 	(0.0190255017326 0.0284736755306 -0.0327249234749) : omega : 	0.0479126133149 : d : 	(0.392847479194 0.58793780121 -0.707106781187)
	I197 : dAve : 	(0.0225792963734 0.025746752993 -0.0327249234749) : omega : 	0.0479126133149 : d : 	(0.466227897004 0.531631026234 -0.707106781187)
	I198 : dAve : 	(0.025746752993 0.0225792963734 -0.0327249234749) : omega : 	0.0479126133149 : d : 	(0.531631026234 0.466227897004 -0.707106781187)
	I199 : dAve : 	(0.0284736755306 0.0190255017326 -0.0327249234749) : omega : 	0.0479126133149 : d : 	(0.58793780121 0.392847479194 -0.707106781187)
	I200 : dAve : 	(0.0307134055855 0.0151461754823 -0.0327249234749) : omega : 	0.0479126133149 : d : 	(0.634184797399 0.312745332096 -0.707106781187)
	I201 : dAve : 	(0.0324276207555 0.0110076939702 -0.0327249234749) : omega : 	0.0479126133149 : d : 	(0.669580715876 0.227292025657 -0.707106781187)
	I202 : dAve : 	(0.0335869903436 0.00668086776241 -0.0327249234749) : omega : 	0.0479126133149 : d : 	(0.693519922661 0.137949689641 -0.707106781187)
	I203 : dAve : 	(0.034171677215 0.00223973005487 -0.0327249234749) : omega : 	0.0479126133149 : d : 	(0.70559281129 0.0462469961895 -0.707106781187)
	I204 : dAve : 	(0.034171677215 -0.00223973005487 -0.0327249234749) : omega : 	0.0479126133149 : d : 	(0.70559281129 -0.0462469961895 -0.707106781187)
	I205 : dAve : 	(0.0335869903436 -0.00668086776241 -0.0327249234749) : omega : 	0.0479126133149 : d : 	(0.693519922661 -0.137949689641 -0.707106781187)
	I206 : dAve : 	(0.0324276207555 -0.0110076939702 -0.0327249234749) : omega : 	0.0479126133149 : d : 	(0.669580715876 -0.227292025657 -0.707106781187)
	I207 : dAve : 	(0.0307134055855 -0.0151461754823 -0.0327249234749) : omega : 	0.0479126133149 : d : 	(0.634184797399 -0.312745332096 -0.707106781187)
	I208 : dAve : 	(0.0284736755306 -0.0190255017326 -0.0327249234749) : omega : 	0.0479126133149 : d : 	(0.58793780121 -0.392847479194 -0.707106781187)
	I209 : dAve : 	(0.025746752993 -0.0225792963734 -0.0327249234749) : omega : 	0.0479126133149 : d : 	(0.531631026234 -0.466227897004 -0.707106781187)
	I210 : dAve : 	(0.0225792963734 -0.025746752993 -0.0327249234749) : omega : 	0.0479126133149 : d : 	(0.466227897004 -0.531631026234 -0.707106781187)
	I211 : dAve : 	(0.0190255017326 -0.0284736755306 -0.0327249234749) : omega : 	0.0479126133149 : d : 	(0.392847479194 -0.58793780121 -0.707106781187)
	I212 : dAve : 	(0.0151461754823 -0.0307134055855 -0.0327249234749) : omega : 	0.0479126133149 : d : 	(0.312745332096 -0.634184797399 -0.707106781187)
	I213 : dAve : 	(0.0110076939702 -0.0324276207555 -0.0327249234749) : omega : 	0.0479126133149 : d : 	(0.227292025657 -0.669580715876 -0.707106781187)
	I214 : dAve : 	(0.00668086776241 -0.0335869903436 -0.0327249234749) : omega : 	0.0479126133149 : d : 	(0.137949689641 -0.693519922661 -0.707106781187)
	I215 : dAve : 	(0.00223973005487 -0.034171677215 -0.0327249234749) : omega : 	0.0479126133149 : d : 	(0.0462469961895 -0.70559281129 -0.707106781187)
	I216 : dAve : 	(-0.00223973005487 -0.034171677215 -0.0327249234749) : omega : 	0.0479126133149 : d : 	(-0.0462469961895 -0.70559281129 -0.707106781187)
	I217 : dAve : 	(-0.00668086776241 -0.0335869903436 -0.0327249234749) : omega : 	0.0479126133149 : d : 	(-0.137949689641 -0.693519922661 -0.707106781187)
	I218 : dAve : 	(-0.0110076939702 -0.0324276207555 -0.0327249234749) : omega : 	0.0479126133149 : d : 	(-0.227292025657 -0.669580715876 -0.707106781187)
	I219 : dAve : 	(-0.0151461754823 -0.0307134055855 -0.0327249234749) : omega : 	0.0479126133149 : d : 	(-0.312745332096 -0.634184797399 -0.707106781187)
	I220 : dAve : 	(-0.0190255017326 -0.0284736755306 -0.0327249234749) : omega : 	0.0479126133149 : d : 	(-0.392847479194 -0.58793780121 -0.707106781187)
	I221 : dAve : 	(-0.0225792963734 -0.025746752993 -0.0327249234749) : omega : 	0.0479126133149 : d : 	(-0.466227897004 -0.531631026234 -0.707106781187)
	I222 : dAve : 	(-0.025746752993 -0.0225792963734 -0.0327249234749) : omega : 	0.0479126133149 : d : 	(-0.531631026234 -0.466227897004 -0.707106781187)
	I223 : dAve : 	(-0.0284736755306 -0.0190255017326 -0.0327249234749) : omega : 	0.0479126133149 : d : 	(-0.58793780121 -0.392847479194 -0.707106781187)
	I224 : dAve : 	(-0.0307134055855 -0.0151461754823 -0.0327249234749) : omega : 	0.0479126133149 : d : 	(-0.634184797399 -0.312745332096 -0.707106781187)
	I225 : dAve : 	(-0.0324276207555 -0.0110076939702 -0.0327249234749) : omega : 	0.0479126133149 : d : 	(-0.669580715876 -0.227292025657 -0.707106781187)
	I226 : dAve : 	(-0.0335869903436 -0.00668086776241 -0.0327249234749) : omega : 	0.0479126133149 : d : 	(-0.693519922661 -0.137949689641 -0.707106781187)
	I227 : dAve : 	(-0.034171677215 -0.00223973005487 -0.0327249234749) : omega : 	0.0479126133149 : d : 	(-0.70559281129 -0.0462469961895 -0.707106781187)
	I228 : dAve : 	(-0.034171677215 0.00223973005487 -0.0327249234749) : omega : 	0.0479126133149 : d : 	(-0.70559281129 0.0462469961895 -0.707106781187)
	I229 : dAve : 	(-0.0335869903436 0.00668086776241 -0.0327249234749) : omega : 	0.0479126133149 : d : 	(-0.693519922661 0.137949689641 -0.707106781187)
	I230 : dAve : 	(-0.0324276207555 0.0110076939702 -0.0327249234749) : omega : 	0.0479126133149 : d : 	(-0.669580715876 0.227292025657 -0.707106781187)
	I231 : dAve : 	(-0.0307134055855 0.0151461754823 -0.0327249234749) : omega : 	0.0479126133149 : d : 	(-0.634184797399 0.312745332096 -0.707106781187)
	I232 : dAve : 	(-0.0284736755306 0.0190255017326 -0.0327249234749) : omega : 	0.0479126133149 : d : 	(-0.58793780121 0.392847479194 -0.707106781187)
	I233 : dAve : 	(-0.025746752993 0.0225792963734 -0.0327249234749) : omega : 	0.0479126133149 : d : 	(-0.531631026234 0.466227897004 -0.707106781187)
	I234 : dAve : 	(-0.0225792963734 0.025746752993 -0.0327249234749) : omega : 	0.0479126133149 : d : 	(-0.466227897004 0.531631026234 -0.707106781187)
	I235 : dAve : 	(-0.0190255017326 0.0284736755306 -0.0327249234749) : omega : 	0.0479126133149 : d : 	(-0.392847479194 0.58793780121 -0.707106781187)
	I236 : dAve : 	(-0.0151461754823 0.0307134055855 -0.0327249234749) : omega : 	0.0479126133149 : d : 	(-0.312745332096 0.634184797399 -0.707106781187)
	I237 : dAve : 	(-0.0110076939702 0.0324276207555 -0.0327249234749) : omega : 	0.0479126133149 : d : 	(-0.227292025657 0.669580715876 -0.707106781187)
	I238 : dAve : 	(-0.00668086776241 0.0335869903436 -0.0327249234749) : omega : 	0.0479126133149 : d : 	(-0.137949689641 0.693519922661 -0.707106781187)
	I239 : dAve : 	(-0.00223973005487 0.034171677215 -0.0327249234749) : omega : 	0.0479126133149 : d : 	(-0.0462469961895 0.70559281129 -0.707106781187)
	I240 : dAve : 	(0.000387488209079 0.00591192763451 -0.0163624617374) : omega : 	0.0175372336349 : d : 	(0.0169275754541 0.25826489366 -0.965925826289)
	I241 : dAve : 	(0.00115583459655 0.00581077291359 -0.0163624617374) : omega : 	0.0175372336349 : d : 	(0.050493090853 0.253845909725 -0.965925826289)
	I242 : dAve : 	(0.00190440433361 0.00561019425706 -0.0163624617374) : omega : 	0.0175372336349 : d : 	(0.083194655468 0.245083551895 -0.965925826289)
	I243 : dAve : 	(0.00262038918453 0.00531362362136 -0.0163624617374) : omega : 	0.0175372336349 : d : 	(0.114472736462 0.232127746542 -0.965925826289)
	I244 : dAve : 	(0.00329153844998 0.00492613541228 -0.0163624617374) : omega : 	0.0175372336349 : d : 	(0.143792157198 0.215200171088 -0.965925826289)
	I245 : dAve : 	(0.00390636857998 0.00445435966052 -0.0163624617374) : omega : 	0.0175372336349 : d : 	(0.170651254257 0.194590461042 -0.965925826289)
	I246 : dAve : 	(0.00445435966052 0.00390636857998 -0.0163624617374) : omega : 	0.0175372336349 : d : 	(0.194590461042 0.170651254257 -0.965925826289)
	I247 : dAve : 	(0.00492613541228 0.00329153844998 -0.0163624617374) : omega : 	0.0175372336349 : d : 	(0.215200171088 0.143792157198 -0.965925826289)
	I248 : dAve : 	(0.00531362362136 0.00262038918453 -0.0163624617374) : omega : 	0.0175372336349 : d : 	(0.232127746542 0.114472736462 -0.965925826289)
	I249 : dAve : 	(0.00561019425706 0.00190440433361 -0.0163624617374) : omega : 	0.0175372336349 : d : 	(0.245083551895 0.083194655468 -0.965925826289)
	I250 : dAve : 	(0.00581077291359 0.00115583459655 -0.0163624617374) : omega : 	0.0175372336349 : d : 	(0.253845909725 0.050493090853 -0.965925826289)
	I251 : dAve : 	(0.00591192763451 0.000387488209079 -0.0163624617374) : omega : 	0.0175372336349 : d : 	(0.25826489366 0.0169275754541 -0.965925826289)
	I252 : dAve : 	(0.00591192763451 -0.000387488209079 -0.0163624617374) : omega : 	0.0175372336349 : d : 	(0.25826489366 -0.0169275754541 -0.965925826289)
	I253 : dAve : 	(0.00581077291359 -0.00115583459655 -0.0163624617374) : omega : 	0.0175372336349 : d : 	(0.253845909725 -0.050493090853 -0.965925826289)
	I254 : dAve : 	(0.00561019425706 -0.00190440433361 -0.0163624617374) : omega : 	0.0175372336349 : d : 	(0.245083551895 -0.083194655468 -0.965925826289)
	I255 : dAve : 	(0.00531362362136 -0.00262038918453 -0.0163624617374) : omega : 	0.0175372336349 : d : 	(0.232127746542 -0.114472736462 -0.965925826289)
	I256 : dAve : 	(0.00492613541228 -0.00329153844998 -0.0163624617374) : omega : 	0.0175372336349 : d : 	(0.215200171088 -0.143792157198 -0.965925826289)
	I257 : dAve : 	(0.00445435966052 -0.00390636857998 -0.0163624617374) : omega : 	0.0175372336349 : d : 	(0.194590461042 -0.170651254257 -0.965925826289)
	I258 : dAve : 	(0.00390636857998 -0.00445435966052 -0.0163624617374) : omega : 	0.0175372336349 : d : 	(0.170651254257 -0.194590461042 -0.965925826289)
	I259 : dAve : 	(0.00329153844998 -0.00492613541228 -0.0163624617374) : omega : 	0.0175372336349 : d : 	(0.143792157198 -0.215200171088 -0.965925826289)
	I260 : dAve : 	(0.00262038918453 -0.00531362362136 -0.0163624617374) : omega : 	0.0175372336349 : d : 	(0.114472736462 -0.232127746542 -0.965925826289)
	I261 : dAve : 	(0.00190440433361 -0.00561019425706 -0.0163624617374) : omega : 	0.0175372336349 : d : 	(0.083194655468 -0.245083551895 -0.965925826289)
	I262 : dAve : 	(0.00115583459655 -0.00581077291359 -0.0163624617374) : omega : 	0.0175372336349 : d : 	(0.050493090853 -0.253845909725 -0.965925826289)
	I263 : dAve : 	(0.000387488209079 -0.00591192763451 -0.0163624617374) : omega : 	0.0175372336349 : d : 	(0.0169275754541 -0.25826489366 -0.965925826289)
	I264 : dAve : 	(-0.000387488209079 -0.00591192763451 -0.0163624617374) : omega : 	0.0175372336349 : d : 	(-0.0169275754541 -0.25826489366 -0.965925826289)
	I265 : dAve : 	(-0.00115583459655 -0.00581077291359 -0.0163624617374) : omega : 	0.0175372336349 : d : 	(-0.050493090853 -0.253845909725 -0.965925826289)
	I266 : dAve : 	(-0.00190440433361 -0.00561019425706 -0.0163624617374) : omega : 	0.0175372336349 : d : 	(-0.083194655468 -0.245083551895 -0.965925826289)
	I267 : dAve : 	(-0.00262038918453 -0.00531362362136 -0.0163624617374) : omega : 	0.0175372336349 : d : 	(-0.114472736462 -0.232127746542 -0.965925826289)
	I268 : dAve : 	(-0.00329153844998 -0.00492613541228 -0.0163624617374) : omega : 	0.0175372336349 : d : 	(-0.143792157198 -0.215200171088 -0.965925826289)
	I269 : dAve : 	(-0.00390636857998 -0.00445435966052 -0.0163624617374) : omega : 	0.0175372336349 : d : 	(-0.170651254257 -0.194590461042 -0.965925826289)
	I270 : dAve : 	(-0.00445435966052 -0.00390636857998 -0.0163624617374) : omega : 	0.0175372336349 : d : 	(-0.194590461042 -0.170651254257 -0.965925826289)
	I271 : dAve : 	(-0.00492613541228 -0.00329153844998 -0.0163624617374) : omega : 	0.0175372336349 : d : 	(-0.215200171088 -0.143792157198 -0.965925826289)
	I272 : dAve : 	(-0.00531362362136 -0.00262038918453 -0.0163624617374) : omega : 	0.0175372336349 : d : 	(-0.232127746542 -0.114472736462 -0.965925826289)
	I273 : dAve : 	(-0.00561019425706 -0.00190440433361 -0.0163624617374) : omega : 	0.0175372336349 : d : 	(-0.245083551895 -0.083194655468 -0.965925826289)
	I274 : dAve : 	(-0.00581077291359 -0.00115583459655 -0.0163624617374) : omega : 	0.0175372336349 : d : 	(-0.253845909725 -0.050493090853 -0.965925826289)
	I275 : dAve : 	(-0.00591192763451 -0.000387488209079 -0.0163624617374) : omega : 	0.0175372336349 : d : 	(-0.25826489366 -0.0169275754541 -0.965925826289)
	I276 : dAve : 	(-0.00591192763451 0.000387488209079 -0.0163624617374) : omega : 	0.0175372336349 : d : 	(-0.25826489366 0.0169275754541 -0.965925826289)
	I277 : dAve : 	(-0.00581077291359 0.00115583459655 -0.0163624617374) : omega : 	0.0175372336349 : d : 	(-0.253845909725 0.050493090853 -0.965925826289)
	I278 : dAve : 	(-0.00561019425706 0.00190440433361 -0.0163624617374) : omega : 	0.0175372336349 : d : 	(-0.245083551895 0.083194655468 -0.965925826289)
	I279 : dAve : 	(-0.00531362362136 0.00262038918453 -0.0163624617374) : omega : 	0.0175372336349 : d : 	(-0.232127746542 0.114472736462 -0.965925826289)
	I280 : dAve : 	(-0.00492613541228 0.00329153844998 -0.0163624617374) : omega : 	0.0175372336349 : d : 	(-0.215200171088 0.143792157198 -0.965925826289)
	I281 : dAve : 	(-0.00445435966052 0.00390636857998 -0.0163624617374) : omega : 	0.0175372336349 : d : 	(-0.194590461042 0.170651254257 -0.965925826289)
	I282 : dAve : 	(-0.00390636857998 0.00445435966052 -0.0163624617374) : omega : 	0.0175372336349 : d : 	(-0.170651254257 0.194590461042 -0.965925826289)
	I283 : dAve : 	(-0.00329153844998 0.00492613541228 -0.0163624617374) : omega : 	0.0175372336349 : d : 	(-0.143792157198 0.215200171088 -0.965925826289)
	I284 : dAve : 	(-0.00262038918453 0.00531362362136 -0.0163624617374) : omega : 	0.0175372336349 : d : 	(-0.114472736462 0.232127746542 -0.965925826289)
	I285 : dAve : 	(-0.00190440433361 0.00561019425706 -0.0163624617374) : omega : 	0.0175372336349 : d : 	(-0.083194655468 0.245083551895 -0.965925826289)
	I286 : dAve : 	(-0.00115583459655 0.00581077291359 -0.0163624617374) : omega : 	0.0175372336349 : d : 	(-0.050493090853 0.253845909725 -0.965925826289)
	I287 : dAve : 	(-0.000387488209079 0.00591192763451 -0.0163624617374) : omega : 	0.0175372336349 : d : 	(-0.0169275754541 0.25826489366 -0.965925826289)
Total omega : 12.5663706144

Courant Number mean: 0 max: 0

Starting time loop

Sampled set:
    data -> csv

Sampled set:
    data -> csv

Sampled surface:
    yNormal -> ensight
        sampledCuttingPlane: yNormal : plane:(0 1 0) (0 0 0) offsets:(0)

Sampled surface:
    zNormal -> ensight
        sampledCuttingPlane: zNormal : plane:(0 0 1) (0 0 0) offsets:(0)

Sampled surface:
    patchAll -> ensight
        sampledPatch: patchAll : patches:(".*WW.*")

deltaT = 1
Time = 1

PIMPLE: iteration 1
Radiation solver iter: 0
DILUPBiCGStab:  Solving for ILambda_0_0, Initial residual = 1, Final residual = 1.285342006e-63, No Iterations 2
DILUPBiCGStab:  Solving for ILambda_1_0, Initial residual = 1, Final residual = 1.26433752283e-63, No Iterations 2
DILUPBiCGStab:  Solving for ILambda_2_0, Initial residual = 1, Final residual = 1.16327391293e-63, No Iterations 2
DILUPBiCGStab:  Solving for ILambda_3_0, Initial residual = 1, Final residual = 1.26712770616e-63, No Iterations 2
DILUPBiCGStab:  Solving for ILambda_4_0, Initial residual = 1, Final residual = 1.2314016249e-63, No Iterations 2
DILUPBiCGStab:  Solving for ILambda_5_0, Initial residual = 1, Final residual = 1.19754775824e-63, No Iterations 2
DILUPBiCGStab:  Solving for ILambda_6_0, Initial residual = 1, Final residual = 1.17804173882e-63, No Iterations 2
DILUPBiCGStab:  Solving for ILambda_7_0, Initial residual = 1, Final residual = 2.1145561994e-63, No Iterations 2
DILUPBiCGStab:  Solving for ILambda_8_0, Initial residual = 1, Final residual = 1.1886464958e-63, No Iterations 2
DILUPBiCGStab:  Solving for ILambda_9_0, Initial residual = 1, Final residual = 1.93137422744e-63, No Iterations 2
DILUPBiCGStab:  Solving for ILambda_10_0, Initial residual = 1, Final residual = 1.12949835494e-63, No Iterations 2
DILUPBiCGStab:  Solving for ILambda_11_0, Initial residual = 1, Final residual = 1.1090939574e-63, No Iterations 2
DILUPBiCGStab:  Solving for ILambda_12_0, Initial residual = 1, Final residual = 4.05306975556e-61, No Iterations 19
DILUPBiCGStab:  Solving for ILambda_13_0, Initial residual = 1, Final residual = 1.33364288479e-61, No Iterations 25
DILUPBiCGStab:  Solving for ILambda_14_0, Initial residual = 1, Final residual = 1.59818802854e-61, No Iterations 29
DILUPBiCGStab:  Solving for ILambda_15_0, Initial residual = 1, Final residual = 7.41710418265e-61, No Iterations 31
DILUPBiCGStab:  Solving for ILambda_16_0, Initial residual = 1, Final residual = 2.39299678613e-61, No Iterations 33
DILUPBiCGStab:  Solving for ILambda_17_0, Initial residual = 1, Final residual = 4.14511159245e-61, No Iterations 34
DILUPBiCGStab:  Solving for ILambda_18_0, Initial residual = 1, Final residual = 5.10060714123e-61, No Iterations 34
DILUPBiCGStab:  Solving for ILambda_19_0, Initial residual = 1, Final residual = 1.22185609757e-61, No Iterations 34
DILUPBiCGStab:  Solving for ILambda_20_0, Initial residual = 1, Final residual = 1.77732471527e-61, No Iterations 33
DILUPBiCGStab:  Solving for ILambda_21_0, Initial residual = 1, Final residual = 7.83820929888e-62, No Iterations 32
DILUPBiCGStab:  Solving for ILambda_22_0, Initial residual = 1, Final residual = 3.27729141385e-61, No Iterations 29
DILUPBiCGStab:  Solving for ILambda_23_0, Initial residual = 1, Final residual = 6.33167025522e-62, No Iterations 28
DILUPBiCGStab:  Solving for ILambda_24_0, Initial residual = 1, Final residual = 6.48893927647e-62, No Iterations 28
DILUPBiCGStab:  Solving for ILambda_25_0, Initial residual = 1, Final residual = 1.24840549277e-61, No Iterations 29
DILUPBiCGStab:  Solving for ILambda_26_0, Initial residual = 1, Final residual = 7.59012879153e-61, No Iterations 29
DILUPBiCGStab:  Solving for ILambda_27_0, Initial residual = 1, Final residual = 7.53579669762e-62, No Iterations 30
DILUPBiCGStab:  Solving for ILambda_28_0, Initial residual = 1, Final residual = 5.85233403001e-61, No Iterations 30
DILUPBiCGStab:  Solving for ILambda_29_0, Initial residual = 1, Final residual = 3.34281814797e-61, No Iterations 30
DILUPBiCGStab:  Solving for ILambda_30_0, Initial residual = 1, Final residual = 2.32837936548e-61, No Iterations 30
DILUPBiCGStab:  Solving for ILambda_31_0, Initial residual = 1, Final residual = 5.30372471551e-61, No Iterations 30
DILUPBiCGStab:  Solving for ILambda_32_0, Initial residual = 1, Final residual = 9.34004718915e-62, No Iterations 30
DILUPBiCGStab:  Solving for ILambda_33_0, Initial residual = 1, Final residual = 5.1544104285e-61, No Iterations 29
DILUPBiCGStab:  Solving for ILambda_34_0, Initial residual = 1, Final residual = 1.64046914968e-61, No Iterations 29
DILUPBiCGStab:  Solving for ILambda_35_0, Initial residual = 1, Final residual = 1.11195204098e-61, No Iterations 28
DILUPBiCGStab:  Solving for ILambda_36_0, Initial residual = 1, Final residual = 9.74605012938e-62, No Iterations 28
DILUPBiCGStab:  Solving for ILambda_37_0, Initial residual = 1, Final residual = 4.49123950071e-61, No Iterations 29
DILUPBiCGStab:  Solving for ILambda_38_0, Initial residual = 1, Final residual = 9.08550428043e-61, No Iterations 32
DILUPBiCGStab:  Solving for ILambda_39_0, Initial residual = 1, Final residual = 1.5819046288e-61, No Iterations 33
DILUPBiCGStab:  Solving for ILambda_40_0, Initial residual = 1, Final residual = 8.30544877259e-61, No Iterations 34
DILUPBiCGStab:  Solving for ILambda_41_0, Initial residual = 1, Final residual = 2.99065666389e-61, No Iterations 34
DILUPBiCGStab:  Solving for ILambda_42_0, Initial residual = 1, Final residual = 1.9618384161e-61, No Iterations 34
DILUPBiCGStab:  Solving for ILambda_43_0, Initial residual = 1, Final residual = 3.70313895157e-61, No Iterations 33
DILUPBiCGStab:  Solving for ILambda_44_0, Initial residual = 1, Final residual = 7.21145262298e-61, No Iterations 31
DILUPBiCGStab:  Solving for ILambda_45_0, Initial residual = 1, Final residual = 5.5923140248e-61, No Iterations 29
DILUPBiCGStab:  Solving for ILambda_46_0, Initial residual = 1, Final residual = 1.05132859342e-61, No Iterations 25
DILUPBiCGStab:  Solving for ILambda_47_0, Initial residual = 1, Final residual = 8.34766208825e-61, No Iterations 19
DILUPBiCGStab:  Solving for ILambda_48_0, Initial residual = 1, Final residual = 2.16990422785e-63, No Iterations 2
DILUPBiCGStab:  Solving for ILambda_49_0, Initial residual = 1, Final residual = 5.07670968816e-63, No Iterations 2
DILUPBiCGStab:  Solving for ILambda_50_0, Initial residual = 1, Final residual = 2.53819482405e-63, No Iterations 2
DILUPBiCGStab:  Solving for ILambda_51_0, Initial residual = 1, Final residual = 2.49416113861e-63, No Iterations 2
DILUPBiCGStab:  Solving for ILambda_52_0, Initial residual = 1, Final residual = 3.32354121315e-63, No Iterations 2
DILUPBiCGStab:  Solving for ILambda_53_0, Initial residual = 1, Final residual = 1.12098744601e-63, No Iterations 2
DILUPBiCGStab:  Solving for ILambda_54_0, Initial residual = 1, Final residual = 1.97104236008e-63, No Iterations 2
DILUPBiCGStab:  Solving for ILambda_55_0, Initial residual = 1, Final residual = 1.9962917182e-63, No Iterations 2
DILUPBiCGStab:  Solving for ILambda_56_0, Initial residual = 1, Final residual = 2.43131121628e-63, No Iterations 2
DILUPBiCGStab:  Solving for ILambda_57_0, Initial residual = 1, Final residual = 2.96446239905e-63, No Iterations 2
DILUPBiCGStab:  Solving for ILambda_58_0, Initial residual = 1, Final residual = 2.09658734705e-63, No Iterations 2
DILUPBiCGStab:  Solving for ILambda_59_0, Initial residual = 1, Final residual = 1.92235134418e-63, No Iterations 2
DILUPBiCGStab:  Solving for ILambda_60_0, Initial residual = 1, Final residual = 1.71183090281e-61, No Iterations 26
DILUPBiCGStab:  Solving for ILambda_61_0, Initial residual = 1, Final residual = 3.03527115561e-61, No Iterations 38
DILUPBiCGStab:  Solving for ILambda_62_0, Initial residual = 1, Final residual = 8.39784625583e-61, No Iterations 45
DILUPBiCGStab:  Solving for ILambda_63_0, Initial residual = 1, Final residual = 3.99166633965e-61, No Iterations 51
DILUPBiCGStab:  Solving for ILambda_64_0, Initial residual = 1, Final residual = 3.52792140677e-61, No Iterations 55
DILUPBiCGStab:  Solving for ILambda_65_0, Initial residual = 1, Final residual = 5.63876535828e-61, No Iterations 57
DILUPBiCGStab:  Solving for ILambda_66_0, Initial residual = 1, Final residual = 1.4224020685e-61, No Iterations 58
DILUPBiCGStab:  Solving for ILambda_67_0, Initial residual = 1, Final residual = 7.43548637178e-61, No Iterations 55
DILUPBiCGStab:  Solving for ILambda_68_0, Initial residual = 1, Final residual = 8.86556664178e-61, No Iterations 52
DILUPBiCGStab:  Solving for ILambda_69_0, Initial residual = 1, Final residual = 8.10583310844e-61, No Iterations 47
DILUPBiCGStab:  Solving for ILambda_70_0, Initial residual = 1, Final residual = 1.96604067288e-61, No Iterations 41
DILUPBiCGStab:  Solving for ILambda_71_0, Initial residual = 1, Final residual = 4.50187053332e-61, No Iterations 33
DILUPBiCGStab:  Solving for ILambda_72_0, Initial residual = 1, Final residual = 3.18414960924e-62, No Iterations 34
DILUPBiCGStab:  Solving for ILambda_73_0, Initial residual = 1, Final residual = 9.21552054805e-62, No Iterations 34
DILUPBiCGStab:  Solving for ILambda_74_0, Initial residual = 1, Final residual = 2.86052407521e-61, No Iterations 35
DILUPBiCGStab:  Solving for ILambda_75_0, Initial residual = 1, Final residual = 1.26186286442e-61, No Iterations 35
DILUPBiCGStab:  Solving for ILambda_76_0, Initial residual = 1, Final residual = 4.58269046539e-62, No Iterations 35
DILUPBiCGStab:  Solving for ILambda_77_0, Initial residual = 1, Final residual = 5.45459312279e-61, No Iterations 34
DILUPBiCGStab:  Solving for ILambda_78_0, Initial residual = 1, Final residual = 5.83169298541e-61, No Iterations 34
DILUPBiCGStab:  Solving for ILambda_79_0, Initial residual = 1, Final residual = 3.01024524922e-61, No Iterations 35
DILUPBiCGStab:  Solving for ILambda_80_0, Initial residual = 1, Final residual = 6.16056319129e-61, No Iterations 34
DILUPBiCGStab:  Solving for ILambda_81_0, Initial residual = 1, Final residual = 2.03557867323e-61, No Iterations 35
DILUPBiCGStab:  Solving for ILambda_82_0, Initial residual = 1, Final residual = 1.17139322791e-61, No Iterations 34
DILUPBiCGStab:  Solving for ILambda_83_0, Initial residual = 1, Final residual = 3.16318466528e-61, No Iterations 33
DILUPBiCGStab:  Solving for ILambda_84_0, Initial residual = 1, Final residual = 9.1101416493e-61, No Iterations 33
DILUPBiCGStab:  Solving for ILambda_85_0, Initial residual = 1, Final residual = 9.58342168196e-61, No Iterations 40
DILUPBiCGStab:  Solving for ILambda_86_0, Initial residual = 1, Final residual = 4.16881050256e-61, No Iterations 47
DILUPBiCGStab:  Solving for ILambda_87_0, Initial residual = 1, Final residual = 2.91000218157e-61, No Iterations 52
DILUPBiCGStab:  Solving for ILambda_88_0, Initial residual = 1, Final residual = 2.80805745064e-61, No Iterations 55
DILUPBiCGStab:  Solving for ILambda_89_0, Initial residual = 1, Final residual = 9.51923716454e-61, No Iterations 57
DILUPBiCGStab:  Solving for ILambda_90_0, Initial residual = 1, Final residual = 7.50557012148e-61, No Iterations 57
DILUPBiCGStab:  Solving for ILambda_91_0, Initial residual = 1, Final residual = 5.88958033746e-61, No Iterations 54
DILUPBiCGStab:  Solving for ILambda_92_0, Initial residual = 1, Final residual = 5.48354442891e-61, No Iterations 51
DILUPBiCGStab:  Solving for ILambda_93_0, Initial residual = 1, Final residual = 2.81535107421e-61, No Iterations 46
DILUPBiCGStab:  Solving for ILambda_94_0, Initial residual = 1, Final residual = 3.56068933768e-61, No Iterations 38
DILUPBiCGStab:  Solving for ILambda_95_0, Initial residual = 1, Final residual = 1.45735063345e-61, No Iterations 26
DILUPBiCGStab:  Solving for ILambda_96_0, Initial residual = 1, Final residual = 1.45100418068e-63, No Iterations 2
DILUPBiCGStab:  Solving for ILambda_97_0, Initial residual = 1, Final residual = 1.321802897e-63, No Iterations 2
DILUPBiCGStab:  Solving for ILambda_98_0, Initial residual = 1, Final residual = 3.48687887136e-63, No Iterations 2
DILUPBiCGStab:  Solving for ILambda_99_0, Initial residual = 1, Final residual = 2.00241963596e-63, No Iterations 2
DILUPBiCGStab:  Solving for ILambda_100_0, Initial residual = 1, Final residual = 1.37747251948e-63, No Iterations 2
DILUPBiCGStab:  Solving for ILambda_101_0, Initial residual = 1, Final residual = 1.37224515792e-63, No Iterations 2
DILUPBiCGStab:  Solving for ILambda_102_0, Initial residual = 1, Final residual = 1.37154808748e-63, No Iterations 2
DILUPBiCGStab:  Solving for ILambda_103_0, Initial residual = 1, Final residual = 1.37441749174e-63, No Iterations 2
DILUPBiCGStab:  Solving for ILambda_104_0, Initial residual = 1, Final residual = 1.19049310479e-63, No Iterations 2
DILUPBiCGStab:  Solving for ILambda_105_0, Initial residual = 1, Final residual = 1.16378883918e-63, No Iterations 2
DILUPBiCGStab:  Solving for ILambda_106_0, Initial residual = 1, Final residual = 1.20009297848e-63, No Iterations 2
DILUPBiCGStab:  Solving for ILambda_107_0, Initial residual = 1, Final residual = 1.26372463004e-63, No Iterations 2
DILUPBiCGStab:  Solving for ILambda_108_0, Initial residual = 1, Final residual = 1.20578830468e-61, No Iterations 29
DILUPBiCGStab:  Solving for ILambda_109_0, Initial residual = 1, Final residual = 6.99484057753e-61, No Iterations 44
DILUPBiCGStab:  Solving for ILambda_110_0, Initial residual = 1, Final residual = 7.02313045361e-61, No Iterations 54
DILUPBiCGStab:  Solving for ILambda_111_0, Initial residual = 1, Final residual = 1.44661260317e-61, No Iterations 62
DILUPBiCGStab:  Solving for ILambda_112_0, Initial residual = 1, Final residual = 7.69370072489e-61, No Iterations 67
DILUPBiCGStab:  Solving for ILambda_113_0, Initial residual = 1, Final residual = 4.96971759646e-61, No Iterations 72
DILUPBiCGStab:  Solving for ILambda_114_0, Initial residual = 1, Final residual = 6.99256100449e-61, No Iterations 71
DILUPBiCGStab:  Solving for ILambda_115_0, Initial residual = 1, Final residual = 8.88341775409e-61, No Iterations 66
DILUPBiCGStab:  Solving for ILambda_116_0, Initial residual = 1, Final residual = 3.20845459746e-61, No Iterations 62
DILUPBiCGStab:  Solving for ILambda_117_0, Initial residual = 1, Final residual = 8.57640783527e-61, No Iterations 56
DILUPBiCGStab:  Solving for ILambda_118_0, Initial residual = 1, Final residual = 6.3604616758e-61, No Iterations 47
DILUPBiCGStab:  Solving for ILambda_119_0, Initial residual = 1, Final residual = 7.16688452949e-61, No Iterations 37
DILUPBiCGStab:  Solving for ILambda_120_0, Initial residual = 1, Final residual = 4.00092872854e-61, No Iterations 32
DILUPBiCGStab:  Solving for ILambda_121_0, Initial residual = 1, Final residual = 4.06209301386e-61, No Iterations 33
DILUPBiCGStab:  Solving for ILambda_122_0, Initial residual = 1, Final residual = 3.93070560531e-62, No Iterations 34
DILUPBiCGStab:  Solving for ILambda_123_0, Initial residual = 1, Final residual = 4.02465162519e-61, No Iterations 35
DILUPBiCGStab:  Solving for ILambda_124_0, Initial residual = 1, Final residual = 5.47164792183e-61, No Iterations 35
DILUPBiCGStab:  Solving for ILambda_125_0, Initial residual = 1, Final residual = 4.2488297816e-61, No Iterations 35
DILUPBiCGStab:  Solving for ILambda_126_0, Initial residual = 1, Final residual = 4.73254923433e-62, No Iterations 35
DILUPBiCGStab:  Solving for ILambda_127_0, Initial residual = 1, Final residual = 3.39552992695e-61, No Iterations 35
DILUPBiCGStab:  Solving for ILambda_128_0, Initial residual = 1, Final residual = 9.01763693858e-61, No Iterations 35
DILUPBiCGStab:  Solving for ILambda_129_0, Initial residual = 1, Final residual = 6.41195105242e-62, No Iterations 34
DILUPBiCGStab:  Solving for ILambda_130_0, Initial residual = 1, Final residual = 8.64645060638e-61, No Iterations 33
DILUPBiCGStab:  Solving for ILambda_131_0, Initial residual = 1, Final residual = 9.51965976719e-61, No Iterations 32
DILUPBiCGStab:  Solving for ILambda_132_0, Initial residual = 1, Final residual = 4.99990486347e-62, No Iterations 38
DILUPBiCGStab:  Solving for ILambda_133_0, Initial residual = 1, Final residual = 2.19284193077e-61, No Iterations 48
DILUPBiCGStab:  Solving for ILambda_134_0, Initial residual = 1, Final residual = 6.57465972811e-61, No Iterations 56
DILUPBiCGStab:  Solving for ILambda_135_0, Initial residual = 1, Final residual = 7.69301598172e-61, No Iterations 62
DILUPBiCGStab:  Solving for ILambda_136_0, Initial residual = 1, Final residual = 8.26056519728e-61, No Iterations 67
DILUPBiCGStab:  Solving for ILambda_137_0, Initial residual = 1, Final residual = 4.93462962583e-61, No Iterations 71
DILUPBiCGStab:  Solving for ILambda_138_0, Initial residual = 1, Final residual = 9.00632792558e-61, No Iterations 72
DILUPBiCGStab:  Solving for ILambda_139_0, Initial residual = 1, Final residual = 5.76170481295e-61, No Iterations 67
DILUPBiCGStab:  Solving for ILambda_140_0, Initial residual = 1, Final residual = 6.44916439448e-61, No Iterations 61
DILUPBiCGStab:  Solving for ILambda_141_0, Initial residual = 1, Final residual = 5.90668848692e-61, No Iterations 53
DILUPBiCGStab:  Solving for ILambda_142_0, Initial residual = 1, Final residual = 2.70349075105e-61, No Iterations 44
DILUPBiCGStab:  Solving for ILambda_143_0, Initial residual = 1, Final residual = 1.21577415647e-61, No Iterations 29
DILUPBiCGStab:  Solving for ILambda_144_0, Initial residual = 1, Final residual = 3.45876068133e-61, No Iterations 31
DILUPBiCGStab:  Solving for ILambda_145_0, Initial residual = 1, Final residual = 9.56958880366e-61, No Iterations 32
DILUPBiCGStab:  Solving for ILambda_146_0, Initial residual = 1, Final residual = 3.99567347572e-61, No Iterations 33
DILUPBiCGStab:  Solving for ILambda_147_0, Initial residual = 1, Final residual = 4.96684615289e-61, No Iterations 33
DILUPBiCGStab:  Solving for ILambda_148_0, Initial residual = 1, Final residual = 6.81941480351e-61, No Iterations 34
DILUPBiCGStab:  Solving for ILambda_149_0, Initial residual = 1, Final residual = 7.7404427835e-62, No Iterations 34
DILUPBiCGStab:  Solving for ILambda_150_0, Initial residual = 1, Final residual = 5.74804438558e-61, No Iterations 34
DILUPBiCGStab:  Solving for ILambda_151_0, Initial residual = 1, Final residual = 4.41133317162e-62, No Iterations 34
DILUPBiCGStab:  Solving for ILambda_152_0, Initial residual = 1, Final residual = 8.0879805735e-61, No Iterations 33
DILUPBiCGStab:  Solving for ILambda_153_0, Initial residual = 1, Final residual = 1.64454658036e-61, No Iterations 33
DILUPBiCGStab:  Solving for ILambda_154_0, Initial residual = 1, Final residual = 5.95600105649e-61, No Iterations 32
DILUPBiCGStab:  Solving for ILambda_155_0, Initial residual = 1, Final residual = 1.61349215063e-61, No Iterations 31
DILUPBiCGStab:  Solving for ILambda_156_0, Initial residual = 1, Final residual = 5.21371221292e-61, No Iterations 37
DILUPBiCGStab:  Solving for ILambda_157_0, Initial residual = 1, Final residual = 4.53332596109e-61, No Iterations 48
DILUPBiCGStab:  Solving for ILambda_158_0, Initial residual = 1, Final residual = 6.97779691687e-61, No Iterations 56
DILUPBiCGStab:  Solving for ILambda_159_0, Initial residual = 1, Final residual = 9.84259274937e-61, No Iterations 62
DILUPBiCGStab:  Solving for ILambda_160_0, Initial residual = 1, Final residual = 8.87169474298e-61, No Iterations 66
DILUPBiCGStab:  Solving for ILambda_161_0, Initial residual = 1, Final residual = 4.89031943592e-61, No Iterations 71
DILUPBiCGStab:  Solving for ILambda_162_0, Initial residual = 1, Final residual = 7.40522609081e-61, No Iterations 72
DILUPBiCGStab:  Solving for ILambda_163_0, Initial residual = 1, Final residual = 4.82634717902e-61, No Iterations 67
DILUPBiCGStab:  Solving for ILambda_164_0, Initial residual = 1, Final residual = 3.97066348665e-61, No Iterations 61
DILUPBiCGStab:  Solving for ILambda_165_0, Initial residual = 1, Final residual = 4.80685274658e-61, No Iterations 54
DILUPBiCGStab:  Solving for ILambda_166_0, Initial residual = 1, Final residual = 3.36953217752e-61, No Iterations 44
DILUPBiCGStab:  Solving for ILambda_167_0, Initial residual = 1, Final residual = 4.5571272743e-61, No Iterations 29
DILUPBiCGStab:  Solving for ILambda_168_0, Initial residual = 1, Final residual = 1.49859282156e-63, No Iterations 2
DILUPBiCGStab:  Solving for ILambda_169_0, Initial residual = 1, Final residual = 1.30925969023e-63, No Iterations 2
DILUPBiCGStab:  Solving for ILambda_170_0, Initial residual = 1, Final residual = 1.34201665814e-63, No Iterations 2
DILUPBiCGStab:  Solving for ILambda_171_0, Initial residual = 1, Final residual = 1.27076551021e-63, No Iterations 2
DILUPBiCGStab:  Solving for ILambda_172_0, Initial residual = 1, Final residual = 1.33763903269e-63, No Iterations 2
DILUPBiCGStab:  Solving for ILambda_173_0, Initial residual = 1, Final residual = 1.40772359139e-63, No Iterations 2
DILUPBiCGStab:  Solving for ILambda_174_0, Initial residual = 1, Final residual = 1.3101981504e-63, No Iterations 2
DILUPBiCGStab:  Solving for ILambda_175_0, Initial residual = 1, Final residual = 1.18685623453e-63, No Iterations 2
DILUPBiCGStab:  Solving for ILambda_176_0, Initial residual = 1, Final residual = 1.08649932806e-63, No Iterations 2
DILUPBiCGStab:  Solving for ILambda_177_0, Initial residual = 1, Final residual = 1.06302554419e-63, No Iterations 2
DILUPBiCGStab:  Solving for ILambda_178_0, Initial residual = 1, Final residual = 1.06947815223e-63, No Iterations 2
DILUPBiCGStab:  Solving for ILambda_179_0, Initial residual = 1, Final residual = 9.55914875237e-64, No Iterations 2
DILUPBiCGStab:  Solving for ILambda_180_0, Initial residual = 1, Final residual = 3.74581980023e-61, No Iterations 29
DILUPBiCGStab:  Solving for ILambda_181_0, Initial residual = 1, Final residual = 1.26444546971e-61, No Iterations 45
DILUPBiCGStab:  Solving for ILambda_182_0, Initial residual = 1, Final residual = 3.91162224722e-61, No Iterations 54
DILUPBiCGStab:  Solving for ILambda_183_0, Initial residual = 1, Final residual = 3.42955707559e-61, No Iterations 62
DILUPBiCGStab:  Solving for ILambda_184_0, Initial residual = 1, Final residual = 2.09671141647e-61, No Iterations 68
DILUPBiCGStab:  Solving for ILambda_185_0, Initial residual = 1, Final residual = 5.97454025934e-61, No Iterations 72
DILUPBiCGStab:  Solving for ILambda_186_0, Initial residual = 1, Final residual = 6.73019188871e-61, No Iterations 71
DILUPBiCGStab:  Solving for ILambda_187_0, Initial residual = 1, Final residual = 6.98273930695e-61, No Iterations 67
DILUPBiCGStab:  Solving for ILambda_188_0, Initial residual = 1, Final residual = 3.7614194051e-61, No Iterations 62
DILUPBiCGStab:  Solving for ILambda_189_0, Initial residual = 1, Final residual = 2.99503928054e-61, No Iterations 56
DILUPBiCGStab:  Solving for ILambda_190_0, Initial residual = 1, Final residual = 2.65825745293e-61, No Iterations 48
DILUPBiCGStab:  Solving for ILambda_191_0, Initial residual = 1, Final residual = 7.26495374899e-61, No Iterations 38
DILUPBiCGStab:  Solving for ILambda_192_0, Initial residual = 1, Final residual = 5.0884233905e-61, No Iterations 33
DILUPBiCGStab:  Solving for ILambda_193_0, Initial residual = 1, Final residual = 2.41775755095e-61, No Iterations 34
DILUPBiCGStab:  Solving for ILambda_194_0, Initial residual = 1, Final residual = 9.78210515148e-61, No Iterations 33
DILUPBiCGStab:  Solving for ILambda_195_0, Initial residual = 1, Final residual = 4.82035828109e-61, No Iterations 33
DILUPBiCGStab:  Solving for ILambda_196_0, Initial residual = 1, Final residual = 5.45854308697e-61, No Iterations 34
DILUPBiCGStab:  Solving for ILambda_197_0, Initial residual = 1, Final residual = 2.30521288077e-61, No Iterations 33
DILUPBiCGStab:  Solving for ILambda_198_0, Initial residual = 1, Final residual = 5.20537678486e-61, No Iterations 33
DILUPBiCGStab:  Solving for ILambda_199_0, Initial residual = 1, Final residual = 9.10611424388e-61, No Iterations 33
DILUPBiCGStab:  Solving for ILambda_200_0, Initial residual = 1, Final residual = 4.20765172555e-61, No Iterations 33
DILUPBiCGStab:  Solving for ILambda_201_0, Initial residual = 1, Final residual = 4.70056752516e-61, No Iterations 34
DILUPBiCGStab:  Solving for ILambda_202_0, Initial residual = 1, Final residual = 1.5102742444e-61, No Iterations 34
DILUPBiCGStab:  Solving for ILambda_203_0, Initial residual = 1, Final residual = 1.30668151146e-61, No Iterations 33
DILUPBiCGStab:  Solving for ILambda_204_0, Initial residual = 1, Final residual = 6.69210746702e-61, No Iterations 34
DILUPBiCGStab:  Solving for ILambda_205_0, Initial residual = 1, Final residual = 1.21071991314e-61, No Iterations 41
DILUPBiCGStab:  Solving for ILambda_206_0, Initial residual = 1, Final residual = 2.69775175118e-61, No Iterations 47
DILUPBiCGStab:  Solving for ILambda_207_0, Initial residual = 1, Final residual = 6.14209807735e-61, No Iterations 51
DILUPBiCGStab:  Solving for ILambda_208_0, Initial residual = 1, Final residual = 6.29078236094e-61, No Iterations 55
DILUPBiCGStab:  Solving for ILambda_209_0, Initial residual = 1, Final residual = 9.26097073231e-61, No Iterations 57
DILUPBiCGStab:  Solving for ILambda_210_0, Initial residual = 1, Final residual = 5.7335080067e-61, No Iterations 57
DILUPBiCGStab:  Solving for ILambda_211_0, Initial residual = 1, Final residual = 7.89772249393e-61, No Iterations 55
DILUPBiCGStab:  Solving for ILambda_212_0, Initial residual = 1, Final residual = 7.97687078777e-61, No Iterations 51
DILUPBiCGStab:  Solving for ILambda_213_0, Initial residual = 1, Final residual = 3.03160776631e-61, No Iterations 46
DILUPBiCGStab:  Solving for ILambda_214_0, Initial residual = 1, Final residual = 5.85229468796e-61, No Iterations 38
DILUPBiCGStab:  Solving for ILambda_215_0, Initial residual = 1, Final residual = 9.70733258176e-62, No Iterations 26
DILUPBiCGStab:  Solving for ILambda_216_0, Initial residual = 1, Final residual = 4.56672973221e-63, No Iterations 2
DILUPBiCGStab:  Solving for ILambda_217_0, Initial residual = 1, Final residual = 2.17626250623e-63, No Iterations 2
DILUPBiCGStab:  Solving for ILambda_218_0, Initial residual = 1, Final residual = 3.0657452105e-63, No Iterations 2
DILUPBiCGStab:  Solving for ILambda_219_0, Initial residual = 1, Final residual = 1.38348432756e-63, No Iterations 2
DILUPBiCGStab:  Solving for ILambda_220_0, Initial residual = 1, Final residual = 1.10549587441e-63, No Iterations 2
DILUPBiCGStab:  Solving for ILambda_221_0, Initial residual = 1, Final residual = 6.90466765755e-63, No Iterations 2
DILUPBiCGStab:  Solving for ILambda_222_0, Initial residual = 1, Final residual = 3.80594799457e-63, No Iterations 2
DILUPBiCGStab:  Solving for ILambda_223_0, Initial residual = 1, Final residual = 1.94586218517e-63, No Iterations 2
DILUPBiCGStab:  Solving for ILambda_224_0, Initial residual = 1, Final residual = 1.35342145356e-63, No Iterations 2
DILUPBiCGStab:  Solving for ILambda_225_0, Initial residual = 1, Final residual = 2.23167164675e-63, No Iterations 2
DILUPBiCGStab:  Solving for ILambda_226_0, Initial residual = 1, Final residual = 2.59360666633e-63, No Iterations 2
DILUPBiCGStab:  Solving for ILambda_227_0, Initial residual = 1, Final residual = 2.32215690592e-63, No Iterations 2
DILUPBiCGStab:  Solving for ILambda_228_0, Initial residual = 1, Final residual = 6.06185437317e-62, No Iterations 26
DILUPBiCGStab:  Solving for ILambda_229_0, Initial residual = 1, Final residual = 2.08264637046e-61, No Iterations 38
DILUPBiCGStab:  Solving for ILambda_230_0, Initial residual = 1, Final residual = 5.01833442982e-61, No Iterations 45
DILUPBiCGStab:  Solving for ILambda_231_0, Initial residual = 1, Final residual = 2.07932702085e-61, No Iterations 52
DILUPBiCGStab:  Solving for ILambda_232_0, Initial residual = 1, Final residual = 3.02427183176e-61, No Iterations 55
DILUPBiCGStab:  Solving for ILambda_233_0, Initial residual = 1, Final residual = 9.38923847709e-61, No Iterations 57
DILUPBiCGStab:  Solving for ILambda_234_0, Initial residual = 1, Final residual = 4.68612584306e-61, No Iterations 57
DILUPBiCGStab:  Solving for ILambda_235_0, Initial residual = 1, Final residual = 7.57516150198e-61, No Iterations 55
DILUPBiCGStab:  Solving for ILambda_236_0, Initial residual = 1, Final residual = 5.14104491514e-62, No Iterations 52
DILUPBiCGStab:  Solving for ILambda_237_0, Initial residual = 1, Final residual = 4.05613880336e-61, No Iterations 47
DILUPBiCGStab:  Solving for ILambda_238_0, Initial residual = 1, Final residual = 1.07940018737e-61, No Iterations 41
DILUPBiCGStab:  Solving for ILambda_239_0, Initial residual = 1, Final residual = 9.57801164241e-62, No Iterations 34
DILUPBiCGStab:  Solving for ILambda_240_0, Initial residual = 1, Final residual = 3.42482361133e-62, No Iterations 29
DILUPBiCGStab:  Solving for ILambda_241_0, Initial residual = 1, Final residual = 4.96928050015e-61, No Iterations 30
DILUPBiCGStab:  Solving for ILambda_242_0, Initial residual = 1, Final residual = 9.0477103283e-62, No Iterations 31
DILUPBiCGStab:  Solving for ILambda_243_0, Initial residual = 1, Final residual = 1.89530239945e-61, No Iterations 31
DILUPBiCGStab:  Solving for ILambda_244_0, Initial residual = 1, Final residual = 5.17406106927e-61, No Iterations 31
DILUPBiCGStab:  Solving for ILambda_245_0, Initial residual = 1, Final residual = 1.24876703264e-61, No Iterations 31
DILUPBiCGStab:  Solving for ILambda_246_0, Initial residual = 1, Final residual = 4.83575083361e-61, No Iterations 31
DILUPBiCGStab:  Solving for ILambda_247_0, Initial residual = 1, Final residual = 3.36797866478e-62, No Iterations 31
DILUPBiCGStab:  Solving for ILambda_248_0, Initial residual = 1, Final residual = 9.14617840305e-62, No Iterations 31
DILUPBiCGStab:  Solving for ILambda_249_0, Initial residual = 1, Final residual = 1.44506153006e-61, No Iterations 31
DILUPBiCGStab:  Solving for ILambda_250_0, Initial residual = 1, Final residual = 6.81363866101e-61, No Iterations 30
DILUPBiCGStab:  Solving for ILambda_251_0, Initial residual = 1, Final residual = 1.11002562867e-61, No Iterations 29
DILUPBiCGStab:  Solving for ILambda_252_0, Initial residual = 1, Final residual = 5.41146805211e-61, No Iterations 29
DILUPBiCGStab:  Solving for ILambda_253_0, Initial residual = 1, Final residual = 5.38842293128e-61, No Iterations 30
DILUPBiCGStab:  Solving for ILambda_254_0, Initial residual = 1, Final residual = 1.14978419133e-61, No Iterations 32
DILUPBiCGStab:  Solving for ILambda_255_0, Initial residual = 1, Final residual = 3.68715396634e-61, No Iterations 33
DILUPBiCGStab:  Solving for ILambda_256_0, Initial residual = 1, Final residual = 2.04904053027e-61, No Iterations 34
DILUPBiCGStab:  Solving for ILambda_257_0, Initial residual = 1, Final residual = 1.60744363743e-61, No Iterations 35
DILUPBiCGStab:  Solving for ILambda_258_0, Initial residual = 1, Final residual = 4.609845766e-62, No Iterations 35
DILUPBiCGStab:  Solving for ILambda_259_0, Initial residual = 1, Final residual = 4.65149753003e-61, No Iterations 33
DILUPBiCGStab:  Solving for ILambda_260_0, Initial residual = 1, Final residual = 1.21805017554e-61, No Iterations 32
DILUPBiCGStab:  Solving for ILambda_261_0, Initial residual = 1, Final residual = 1.61387370629e-61, No Iterations 29
DILUPBiCGStab:  Solving for ILambda_262_0, Initial residual = 1, Final residual = 1.94251745131e-61, No Iterations 25
DILUPBiCGStab:  Solving for ILambda_263_0, Initial residual = 1, Final residual = 5.24769569373e-61, No Iterations 19
DILUPBiCGStab:  Solving for ILambda_264_0, Initial residual = 1, Final residual = 1.31465422047e-63, No Iterations 2
DILUPBiCGStab:  Solving for ILambda_265_0, Initial residual = 1, Final residual = 1.33603308839e-63, No Iterations 2
DILUPBiCGStab:  Solving for ILambda_266_0, Initial residual = 1, Final residual = 1.32609971564e-63, No Iterations 2
DILUPBiCGStab:  Solving for ILambda_267_0, Initial residual = 1, Final residual = 1.29704320722e-63, No Iterations 2
DILUPBiCGStab:  Solving for ILambda_268_0, Initial residual = 1, Final residual = 1.2309003062e-63, No Iterations 2
DILUPBiCGStab:  Solving for ILambda_269_0, Initial residual = 1, Final residual = 1.22838320332e-63, No Iterations 2
DILUPBiCGStab:  Solving for ILambda_270_0, Initial residual = 1, Final residual = 1.19814274064e-63, No Iterations 2
DILUPBiCGStab:  Solving for ILambda_271_0, Initial residual = 1, Final residual = 1.21636318594e-63, No Iterations 2
DILUPBiCGStab:  Solving for ILambda_272_0, Initial residual = 1, Final residual = 1.23337839984e-63, No Iterations 2
DILUPBiCGStab:  Solving for ILambda_273_0, Initial residual = 1, Final residual = 1.24750967191e-63, No Iterations 2
DILUPBiCGStab:  Solving for ILambda_274_0, Initial residual = 1, Final residual = 1.24027329621e-63, No Iterations 2
DILUPBiCGStab:  Solving for ILambda_275_0, Initial residual = 1, Final residual = 1.25111832005e-63, No Iterations 2
DILUPBiCGStab:  Solving for ILambda_276_0, Initial residual = 1, Final residual = 5.87762520841e-61, No Iterations 19
DILUPBiCGStab:  Solving for ILambda_277_0, Initial residual = 1, Final residual = 1.85502749522e-61, No Iterations 25
DILUPBiCGStab:  Solving for ILambda_278_0, Initial residual = 1, Final residual = 1.62253784918e-61, No Iterations 29
DILUPBiCGStab:  Solving for ILambda_279_0, Initial residual = 1, Final residual = 5.41703830575e-61, No Iterations 32
DILUPBiCGStab:  Solving for ILambda_280_0, Initial residual = 1, Final residual = 9.46292217687e-61, No Iterations 33
DILUPBiCGStab:  Solving for ILambda_281_0, Initial residual = 1, Final residual = 1.03985926649e-61, No Iterations 35
DILUPBiCGStab:  Solving for ILambda_282_0, Initial residual = 1, Final residual = 1.5080884149e-61, No Iterations 35
DILUPBiCGStab:  Solving for ILambda_283_0, Initial residual = 1, Final residual = 3.80253935524e-61, No Iterations 34
DILUPBiCGStab:  Solving for ILambda_284_0, Initial residual = 1, Final residual = 4.27738109525e-62, No Iterations 34
DILUPBiCGStab:  Solving for ILambda_285_0, Initial residual = 1, Final residual = 1.02852413555e-61, No Iterations 32
[...]
DILUPBiCGStab:  Solving for ILambda_140_0, Initial residual = 3.47419783976e-15, Final residual = 1.79065095396e-61, No Iterations 45
DILUPBiCGStab:  Solving for ILambda_141_0, Initial residual = 3.40666373075e-15, Final residual = 4.09229607754e-61, No Iterations 40
DILUPBiCGStab:  Solving for ILambda_142_0, Initial residual = 3.31394582147e-15, Final residual = 5.50563534706e-61, No Iterations 33
DILUPBiCGStab:  Solving for ILambda_143_0, Initial residual = 3.14391845862e-15, Final residual = 4.03198143965e-61, No Iterations 22
DILUPBiCGStab:  Solving for ILambda_144_0, Initial residual = 2.6588712865e-15, Final residual = 4.38916383538e-61, No Iterations 24
DILUPBiCGStab:  Solving for ILambda_145_0, Initial residual = 2.85944634617e-15, Final residual = 5.12473044801e-62, No Iterations 25
DILUPBiCGStab:  Solving for ILambda_146_0, Initial residual = 2.99833455593e-15, Final residual = 3.87523795313e-62, No Iterations 25
DILUPBiCGStab:  Solving for ILambda_147_0, Initial residual = 3.2035984362e-15, Final residual = 8.56971749425e-61, No Iterations 23
DILUPBiCGStab:  Solving for ILambda_148_0, Initial residual = 3.25609323981e-15, Final residual = 2.8125546162e-61, No Iterations 24
DILUPBiCGStab:  Solving for ILambda_149_0, Initial residual = 3.28210915787e-15, Final residual = 2.65264777145e-61, No Iterations 24
DILUPBiCGStab:  Solving for ILambda_150_0, Initial residual = 3.74313912624e-15, Final residual = 2.33559334106e-62, No Iterations 25
DILUPBiCGStab:  Solving for ILambda_151_0, Initial residual = 3.77949533157e-15, Final residual = 9.6852691335e-62, No Iterations 25
DILUPBiCGStab:  Solving for ILambda_152_0, Initial residual = 3.74668174537e-15, Final residual = 2.20801153757e-61, No Iterations 24
DILUPBiCGStab:  Solving for ILambda_153_0, Initial residual = 3.42912071363e-15, Final residual = 5.29734284593e-61, No Iterations 24
DILUPBiCGStab:  Solving for ILambda_154_0, Initial residual = 3.13492016522e-15, Final residual = 8.17961643412e-62, No Iterations 24
DILUPBiCGStab:  Solving for ILambda_155_0, Initial residual = 2.77648746542e-15, Final residual = 1.71819946498e-62, No Iterations 24
DILUPBiCGStab:  Solving for ILambda_156_0, Initial residual = 2.62831747116e-15, Final residual = 5.39724719774e-61, No Iterations 31
DILUPBiCGStab:  Solving for ILambda_157_0, Initial residual = 2.85032160351e-15, Final residual = 1.01640147614e-61, No Iterations 39
DILUPBiCGStab:  Solving for ILambda_158_0, Initial residual = 2.99711289279e-15, Final residual = 4.52065038119e-61, No Iterations 43
DILUPBiCGStab:  Solving for ILambda_159_0, Initial residual = 3.15498480946e-15, Final residual = 8.19769436431e-61, No Iterations 47
DILUPBiCGStab:  Solving for ILambda_160_0, Initial residual = 3.21138322448e-15, Final residual = 3.87413666424e-61, No Iterations 49
DILUPBiCGStab:  Solving for ILambda_161_0, Initial residual = 3.2090275969e-15, Final residual = 9.44877691126e-61, No Iterations 49
DILUPBiCGStab:  Solving for ILambda_162_0, Initial residual = 3.7198724601e-15, Final residual = 1.87191314247e-61, No Iterations 50
DILUPBiCGStab:  Solving for ILambda_163_0, Initial residual = 3.73083887523e-15, Final residual = 3.89349041033e-61, No Iterations 48
DILUPBiCGStab:  Solving for ILambda_164_0, Initial residual = 3.64537140408e-15, Final residual = 2.99483931465e-61, No Iterations 44
DILUPBiCGStab:  Solving for ILambda_165_0, Initial residual = 3.37167195385e-15, Final residual = 4.82641161387e-61, No Iterations 39
DILUPBiCGStab:  Solving for ILambda_166_0, Initial residual = 3.19532824588e-15, Final residual = 2.46860125267e-61, No Iterations 33
DILUPBiCGStab:  Solving for ILambda_167_0, Initial residual = 2.73008670094e-15, Final residual = 1.0077490483e-61, No Iterations 22
DILUPBiCGStab:  Solving for ILambda_168_0, Initial residual = 2.77874315728e-15, Final residual = 8.22136031399e-63, No Iterations 2
DILUPBiCGStab:  Solving for ILambda_169_0, Initial residual = 3.19554851236e-15, Final residual = 9.76143119825e-63, No Iterations 2
DILUPBiCGStab:  Solving for ILambda_170_0, Initial residual = 3.48491747485e-15, Final residual = 1.12804378149e-62, No Iterations 2
DILUPBiCGStab:  Solving for ILambda_171_0, Initial residual = 3.769020437e-15, Final residual = 1.04853655264e-62, No Iterations 2
DILUPBiCGStab:  Solving for ILambda_172_0, Initial residual = 3.78488574169e-15, Final residual = 1.06810517496e-62, No Iterations 2
DILUPBiCGStab:  Solving for ILambda_173_0, Initial residual = 3.82781526969e-15, Final residual = 1.05243299907e-62, No Iterations 2
DILUPBiCGStab:  Solving for ILambda_174_0, Initial residual = 3.31645033286e-15, Final residual = 9.25690106709e-63, No Iterations 2
DILUPBiCGStab:  Solving for ILambda_175_0, Initial residual = 3.27401436493e-15, Final residual = 8.85120295197e-63, No Iterations 2
DILUPBiCGStab:  Solving for ILambda_176_0, Initial residual = 3.21793411259e-15, Final residual = 8.37730353084e-63, No Iterations 2
DILUPBiCGStab:  Solving for ILambda_177_0, Initial residual = 3.02249656449e-15, Final residual = 7.85065467295e-63, No Iterations 2
DILUPBiCGStab:  Solving for ILambda_178_0, Initial residual = 2.90300200202e-15, Final residual = 1.34666516851e-62, No Iterations 2
DILUPBiCGStab:  Solving for ILambda_179_0, Initial residual = 2.63849051908e-15, Final residual = 6.65376276587e-63, No Iterations 2
DILUPBiCGStab:  Solving for ILambda_180_0, Initial residual = 2.6492672603e-15, Final residual = 8.96497348808e-62, No Iterations 22
DILUPBiCGStab:  Solving for ILambda_181_0, Initial residual = 3.11548368834e-15, Final residual = 3.52627838245e-61, No Iterations 33
DILUPBiCGStab:  Solving for ILambda_182_0, Initial residual = 3.41738948435e-15, Final residual = 1.69666947033e-61, No Iterations 40
DILUPBiCGStab:  Solving for ILambda_183_0, Initial residual = 3.74889256813e-15, Final residual = 6.79327689241e-61, No Iterations 44
DILUPBiCGStab:  Solving for ILambda_184_0, Initial residual = 3.74822157119e-15, Final residual = 1.76204816604e-61, No Iterations 48
DILUPBiCGStab:  Solving for ILambda_185_0, Initial residual = 3.7821997144e-15, Final residual = 4.43515845827e-61, No Iterations 49
DILUPBiCGStab:  Solving for ILambda_186_0, Initial residual = 3.26075146785e-15, Final residual = 8.53800525882e-61, No Iterations 49
DILUPBiCGStab:  Solving for ILambda_187_0, Initial residual = 3.22620226341e-15, Final residual = 5.47653387351e-61, No Iterations 49
DILUPBiCGStab:  Solving for ILambda_188_0, Initial residual = 3.16292052106e-15, Final residual = 6.10248573256e-61, No Iterations 47
DILUPBiCGStab:  Solving for ILambda_189_0, Initial residual = 2.98826348323e-15, Final residual = 3.79521759346e-61, No Iterations 43
DILUPBiCGStab:  Solving for ILambda_190_0, Initial residual = 2.85286078648e-15, Final residual = 4.19169761781e-61, No Iterations 39
DILUPBiCGStab:  Solving for ILambda_191_0, Initial residual = 2.62658593193e-15, Final residual = 8.49936135697e-62, No Iterations 31
DILUPBiCGStab:  Solving for ILambda_192_0, Initial residual = 9.81749092086e-16, Final residual = 1.61967301561e-61, No Iterations 25
DILUPBiCGStab:  Solving for ILambda_193_0, Initial residual = 1.03855132898e-15, Final residual = 3.53581683142e-63, No Iterations 26
DILUPBiCGStab:  Solving for ILambda_194_0, Initial residual = 1.00198556456e-15, Final residual = 6.95161996209e-62, No Iterations 26
DILUPBiCGStab:  Solving for ILambda_195_0, Initial residual = 1.0931320357e-15, Final residual = 1.8308400362e-61, No Iterations 27
DILUPBiCGStab:  Solving for ILambda_196_0, Initial residual = 1.1327295234e-15, Final residual = 7.96747862284e-61, No Iterations 26
DILUPBiCGStab:  Solving for ILambda_197_0, Initial residual = 1.16354796443e-15, Final residual = 8.74188685051e-61, No Iterations 26
DILUPBiCGStab:  Solving for ILambda_198_0, Initial residual = 1.15967086657e-15, Final residual = 3.7478284598e-61, No Iterations 26
DILUPBiCGStab:  Solving for ILambda_199_0, Initial residual = 1.15051910048e-15, Final residual = 1.56951079206e-62, No Iterations 28
DILUPBiCGStab:  Solving for ILambda_200_0, Initial residual = 1.07372054275e-15, Final residual = 2.16139995478e-61, No Iterations 25
DILUPBiCGStab:  Solving for ILambda_201_0, Initial residual = 9.93312572127e-16, Final residual = 5.18181784911e-61, No Iterations 26
DILUPBiCGStab:  Solving for ILambda_202_0, Initial residual = 1.01153146488e-15, Final residual = 1.19854318259e-61, No Iterations 26
DILUPBiCGStab:  Solving for ILambda_203_0, Initial residual = 1.00985958115e-15, Final residual = 4.4535498857e-61, No Iterations 25
DILUPBiCGStab:  Solving for ILambda_204_0, Initial residual = 1.02124817369e-15, Final residual = 2.78312027423e-61, No Iterations 27
DILUPBiCGStab:  Solving for ILambda_205_0, Initial residual = 1.0307430864e-15, Final residual = 1.79035226989e-61, No Iterations 32
DILUPBiCGStab:  Solving for ILambda_206_0, Initial residual = 1.01592608698e-15, Final residual = 7.53940234582e-61, No Iterations 35
DILUPBiCGStab:  Solving for ILambda_207_0, Initial residual = 1.09573291368e-15, Final residual = 8.6645708905e-61, No Iterations 37
DILUPBiCGStab:  Solving for ILambda_208_0, Initial residual = 1.14325438583e-15, Final residual = 4.14048315029e-61, No Iterations 39
DILUPBiCGStab:  Solving for ILambda_209_0, Initial residual = 1.16943397411e-15, Final residual = 2.71459800638e-61, No Iterations 41
DILUPBiCGStab:  Solving for ILambda_210_0, Initial residual = 1.16014046246e-15, Final residual = 3.09949958542e-61, No Iterations 40
DILUPBiCGStab:  Solving for ILambda_211_0, Initial residual = 1.14766277457e-15, Final residual = 1.71121941889e-61, No Iterations 39
DILUPBiCGStab:  Solving for ILambda_212_0, Initial residual = 1.08643532302e-15, Final residual = 3.94850546399e-61, No Iterations 36
DILUPBiCGStab:  Solving for ILambda_213_0, Initial residual = 9.96163289394e-16, Final residual = 7.08351698658e-61, No Iterations 32
DILUPBiCGStab:  Solving for ILambda_214_0, Initial residual = 1.00576476621e-15, Final residual = 8.6629695578e-61, No Iterations 27
DILUPBiCGStab:  Solving for ILambda_215_0, Initial residual = 1.00174898205e-15, Final residual = 7.51247684304e-61, No Iterations 19
DILUPBiCGStab:  Solving for ILambda_216_0, Initial residual = 1.02532667261e-15, Final residual = 3.18150697183e-63, No Iterations 2
DILUPBiCGStab:  Solving for ILambda_217_0, Initial residual = 1.00966888749e-15, Final residual = 2.84799629687e-63, No Iterations 2
DILUPBiCGStab:  Solving for ILambda_218_0, Initial residual = 1.00496884962e-15, Final residual = 2.81930148255e-63, No Iterations 2
DILUPBiCGStab:  Solving for ILambda_219_0, Initial residual = 1.0767808191e-15, Final residual = 2.28975039112e-63, No Iterations 2
DILUPBiCGStab:  Solving for ILambda_220_0, Initial residual = 1.16458046353e-15, Final residual = 2.46528629481e-63, No Iterations 2
DILUPBiCGStab:  Solving for ILambda_221_0, Initial residual = 1.19696983281e-15, Final residual = 2.63735289346e-63, No Iterations 2
DILUPBiCGStab:  Solving for ILambda_222_0, Initial residual = 1.17798306665e-15, Final residual = 2.52118612413e-63, No Iterations 2
DILUPBiCGStab:  Solving for ILambda_223_0, Initial residual = 1.15592582663e-15, Final residual = 2.43235719513e-63, No Iterations 2
DILUPBiCGStab:  Solving for ILambda_224_0, Initial residual = 1.10834724836e-15, Final residual = 2.33889243638e-63, No Iterations 2
DILUPBiCGStab:  Solving for ILambda_225_0, Initial residual = 1.01675259613e-15, Final residual = 2.85308186764e-63, No Iterations 2
DILUPBiCGStab:  Solving for ILambda_226_0, Initial residual = 1.04893291622e-15, Final residual = 2.97765508991e-63, No Iterations 2
DILUPBiCGStab:  Solving for ILambda_227_0, Initial residual = 1.00884645735e-15, Final residual = 2.91638632212e-63, No Iterations 2
DILUPBiCGStab:  Solving for ILambda_228_0, Initial residual = 1.0129326044e-15, Final residual = 5.75230295796e-61, No Iterations 19
DILUPBiCGStab:  Solving for ILambda_229_0, Initial residual = 1.00508408162e-15, Final residual = 2.6181897422e-61, No Iterations 27
DILUPBiCGStab:  Solving for ILambda_230_0, Initial residual = 9.96896491224e-16, Final residual = 9.39499294717e-61, No Iterations 33
DILUPBiCGStab:  Solving for ILambda_231_0, Initial residual = 1.07654627609e-15, Final residual = 5.28636992076e-61, No Iterations 36
DILUPBiCGStab:  Solving for ILambda_232_0, Initial residual = 1.16522137778e-15, Final residual = 6.0954231556e-61, No Iterations 38
DILUPBiCGStab:  Solving for ILambda_233_0, Initial residual = 1.16858910941e-15, Final residual = 2.63337469369e-62, No Iterations 41
DILUPBiCGStab:  Solving for ILambda_234_0, Initial residual = 1.16334656337e-15, Final residual = 3.36576473391e-61, No Iterations 40
DILUPBiCGStab:  Solving for ILambda_235_0, Initial residual = 1.13827850498e-15, Final residual = 3.29316654171e-61, No Iterations 39
DILUPBiCGStab:  Solving for ILambda_236_0, Initial residual = 1.10812749176e-15, Final residual = 3.12922273751e-61, No Iterations 38
DILUPBiCGStab:  Solving for ILambda_237_0, Initial residual = 1.00500352119e-15, Final residual = 8.27555752437e-61, No Iterations 35
DILUPBiCGStab:  Solving for ILambda_238_0, Initial residual = 1.03243587505e-15, Final residual = 1.5216581836e-61, No Iterations 32
DILUPBiCGStab:  Solving for ILambda_239_0, Initial residual = 9.84404526808e-16, Final residual = 2.07996968478e-61, No Iterations 28
DILUPBiCGStab:  Solving for ILambda_240_0, Initial residual = 8.37589783236e-16, Final residual = 1.73479147634e-63, No Iterations 22
DILUPBiCGStab:  Solving for ILambda_241_0, Initial residual = 8.42507538208e-16, Final residual = 9.60308128215e-62, No Iterations 22
DILUPBiCGStab:  Solving for ILambda_242_0, Initial residual = 8.69745119396e-16, Final residual = 7.29157020919e-62, No Iterations 23
DILUPBiCGStab:  Solving for ILambda_243_0, Initial residual = 8.67101411825e-16, Final residual = 4.52040858648e-65, No Iterations 23
DILUPBiCGStab:  Solving for ILambda_244_0, Initial residual = 9.05207002055e-16, Final residual = 1.41532435948e-61, No Iterations 24
DILUPBiCGStab:  Solving for ILambda_245_0, Initial residual = 8.97393150843e-16, Final residual = 5.0175220727e-63, No Iterations 23
DILUPBiCGStab:  Solving for ILambda_246_0, Initial residual = 9.0697066348e-16, Final residual = 2.48435072375e-61, No Iterations 23
DILUPBiCGStab:  Solving for ILambda_247_0, Initial residual = 8.87143621509e-16, Final residual = 1.37283432651e-61, No Iterations 23
DILUPBiCGStab:  Solving for ILambda_248_0, Initial residual = 8.79025374267e-16, Final residual = 4.95237769473e-63, No Iterations 23
DILUPBiCGStab:  Solving for ILambda_249_0, Initial residual = 8.55312566548e-16, Final residual = 7.76966307116e-61, No Iterations 22
DILUPBiCGStab:  Solving for ILambda_250_0, Initial residual = 8.4141079472e-16, Final residual = 2.3547993579e-61, No Iterations 23
DILUPBiCGStab:  Solving for ILambda_251_0, Initial residual = 8.30886442168e-16, Final residual = 1.14705661117e-61, No Iterations 22
DILUPBiCGStab:  Solving for ILambda_252_0, Initial residual = 8.31775156208e-16, Final residual = 1.20591183257e-61, No Iterations 23
DILUPBiCGStab:  Solving for ILambda_253_0, Initial residual = 8.39687923382e-16, Final residual = 2.04416406229e-64, No Iterations 24
DILUPBiCGStab:  Solving for ILambda_254_0, Initial residual = 8.65253620843e-16, Final residual = 2.75421052427e-61, No Iterations 25
DILUPBiCGStab:  Solving for ILambda_255_0, Initial residual = 8.62188245738e-16, Final residual = 6.94151156289e-61, No Iterations 25
DILUPBiCGStab:  Solving for ILambda_256_0, Initial residual = 9.08913801292e-16, Final residual = 2.60999917592e-61, No Iterations 26
DILUPBiCGStab:  Solving for ILambda_257_0, Initial residual = 8.91445446153e-16, Final residual = 6.35254789668e-61, No Iterations 26
DILUPBiCGStab:  Solving for ILambda_258_0, Initial residual = 9.11089952481e-16, Final residual = 5.43611147289e-61, No Iterations 26
DILUPBiCGStab:  Solving for ILambda_259_0, Initial residual = 8.93851551462e-16, Final residual = 6.74744207944e-62, No Iterations 26
DILUPBiCGStab:  Solving for ILambda_260_0, Initial residual = 8.64146679833e-16, Final residual = 1.25239663241e-61, No Iterations 24
DILUPBiCGStab:  Solving for ILambda_261_0, Initial residual = 8.69338748145e-16, Final residual = 4.4678896891e-61, No Iterations 22
DILUPBiCGStab:  Solving for ILambda_262_0, Initial residual = 8.34643209263e-16, Final residual = 1.09183173901e-61, No Iterations 19
DILUPBiCGStab:  Solving for ILambda_263_0, Initial residual = 8.31884779569e-16, Final residual = 6.84490697374e-61, No Iterations 14
DILUPBiCGStab:  Solving for ILambda_264_0, Initial residual = 8.26052816753e-16, Final residual = 2.3935417912e-63, No Iterations 2
DILUPBiCGStab:  Solving for ILambda_265_0, Initial residual = 8.3741285623e-16, Final residual = 4.45822279338e-63, No Iterations 2
DILUPBiCGStab:  Solving for ILambda_266_0, Initial residual = 8.86242670443e-16, Final residual = 2.41847833508e-63, No Iterations 2
DILUPBiCGStab:  Solving for ILambda_267_0, Initial residual = 8.6761689656e-16, Final residual = 2.46554973176e-63, No Iterations 2
DILUPBiCGStab:  Solving for ILambda_268_0, Initial residual = 9.09321192295e-16, Final residual = 3.29612639284e-63, No Iterations 2
DILUPBiCGStab:  Solving for ILambda_269_0, Initial residual = 8.983241846e-16, Final residual = 2.42204295562e-63, No Iterations 2
DILUPBiCGStab:  Solving for ILambda_270_0, Initial residual = 9.09764274624e-16, Final residual = 2.4001759019e-63, No Iterations 2
DILUPBiCGStab:  Solving for ILambda_271_0, Initial residual = 9.0444575704e-16, Final residual = 2.35390519854e-63, No Iterations 2
DILUPBiCGStab:  Solving for ILambda_272_0, Initial residual = 8.70230011566e-16, Final residual = 2.39904791821e-63, No Iterations 2
DILUPBiCGStab:  Solving for ILambda_273_0, Initial residual = 8.75265547916e-16, Final residual = 2.37869306575e-63, No Iterations 2
DILUPBiCGStab:  Solving for ILambda_274_0, Initial residual = 8.63041778327e-16, Final residual = 3.98612092326e-63, No Iterations 2
DILUPBiCGStab:  Solving for ILambda_275_0, Initial residual = 8.4567386878e-16, Final residual = 4.07701265981e-63, No Iterations 2
DILUPBiCGStab:  Solving for ILambda_276_0, Initial residual = 8.30979749494e-16, Final residual = 5.02980118214e-61, No Iterations 14
DILUPBiCGStab:  Solving for ILambda_277_0, Initial residual = 8.53987398568e-16, Final residual = 1.66220144864e-61, No Iterations 19
DILUPBiCGStab:  Solving for ILambda_278_0, Initial residual = 8.61276587274e-16, Final residual = 4.48135911978e-61, No Iterations 22
DILUPBiCGStab:  Solving for ILambda_279_0, Initial residual = 8.62510997309e-16, Final residual = 2.15295225007e-61, No Iterations 24
DILUPBiCGStab:  Solving for ILambda_280_0, Initial residual = 8.93184123649e-16, Final residual = 5.08831675629e-61, No Iterations 25
DILUPBiCGStab:  Solving for ILambda_281_0, Initial residual = 9.02789169595e-16, Final residual = 2.07496936158e-61, No Iterations 26
DILUPBiCGStab:  Solving for ILambda_282_0, Initial residual = 8.91004913204e-16, Final residual = 1.1714028966e-61, No Iterations 27
DILUPBiCGStab:  Solving for ILambda_283_0, Initial residual = 8.94440458356e-16, Final residual = 3.43731824037e-61, No Iterations 26
DILUPBiCGStab:  Solving for ILambda_284_0, Initial residual = 8.83100304047e-16, Final residual = 1.3583857322e-61, No Iterations 25
DILUPBiCGStab:  Solving for ILambda_285_0, Initial residual = 8.72296029517e-16, Final residual = 8.64099225606e-62, No Iterations 24
DILUPBiCGStab:  Solving for ILambda_286_0, Initial residual = 8.48900874608e-16, Final residual = 2.87046685917e-61, No Iterations 23
DILUPBiCGStab:  Solving for ILambda_287_0, Initial residual = 8.34739065969e-16, Final residual = 1.68160401189e-62, No Iterations 22
min/max(T) = 1000, 1000
ExecutionTime = 3287.89 s  ClockTime = 3288 s

writeObjects writeObjects1.writeObjects write:
    writing object a
    writing object qem
End

