/*---------------------------------------------------------------------------*\
| =========                 |                                                 |
| \\      /  F ield         | OpenFOAM: The Open Source CFD Toolbox           |
|  \\    /   O peration     | Version:  2306                                  |
|   \\  /    A nd           | Website:  www.openfoam.com                      |
|    \\/     M anipulation  |                                                 |
\*---------------------------------------------------------------------------*/
Build  : _fbf00d6b-20230626 OPENFOAM=2306 version=2306
Arch   : "LSB;label=32;scalar=64"
Exec   : fireRADFoam_MaCFP
Date   : Mar 12 2024
Time   : 19:32:33
Host   : pop-os
PID    : 173313
I/O    : uncollated
Case   : /home/rafay/Desktop/Study/Radiative_Heat_Transfer/Local_copy_RHT2324/01_Projects/02_Rafay/Case_1_q1D_SolidAngle/new_case3/th_6-ph_12/tau_0.1/res_2
nProcs : 1
trapFpe: Floating point exception trapping enabled (FOAM_SIGFPE).
fileModificationChecking : Monitoring run-time modified files using timeStampMaster (fileModificationSkew 5, maxFileModificationPolls 20)
allowSystemOperations : Allowing user-supplied system call operations

// * * * * * * * * * * * * * * * * * * * * * * * * * * * * * * * * * * * * * //
Create time

Create mesh for time = 0


PIMPLE: no residual control data found. Calculations will employ 10 corrector loops

Reading thermophysical properties

Selecting thermodynamics package 
{
    type            hePsiThermo;
    mixture         singleStepReactingMixture;
    transport       sutherland;
    thermo          janaf;
    energy          sensibleEnthalpy;
    equationOfState perfectGas;
    specie          specie;
}

Selecting chemistryReader foamChemistryReader
    elements not defined in "/home/rafay/Desktop/Study/Radiative_Heat_Transfer/Local_copy_RHT2324/01_Projects/02_Rafay/Case_1_q1D_SolidAngle/new_case3/th_6-ph_12/tau_0.1/res_2/constant/reactions"
Fuel heat of combustion :47168962.4726
stoichiometric air-fuel ratio :14.6914056505
stoichiometric oxygen-fuel ratio :3.42181919285
Maximum products mass concentrations:
    H2O: 0.0818486943001
    CO2: 0.199950099979
    N2: 0.718201205721
Creating component thermo properties:
    multi-component carrier - 6 species
    no liquid components
    no solid components
Creating field rho


Reading field U

Reading/calculating face flux field phi

Selecting radiationModel fvDOM
Selecting absorptionEmissionModel constantAbsorptionEmission
Selecting scatterModel none
Selecting sootModel none
fvDOM : Allocated 288 rays with average orientation:
	I0 : dAve : 	(0.000387488209079 0.00591192763451 0.0163624617374) : omega : 	0.0175372336349 : d : 	(0.0169275754541 0.25826489366 0.965925826289)
	I1 : dAve : 	(0.00115583459655 0.00581077291359 0.0163624617374) : omega : 	0.0175372336349 : d : 	(0.050493090853 0.253845909725 0.965925826289)
	I2 : dAve : 	(0.00190440433361 0.00561019425706 0.0163624617374) : omega : 	0.0175372336349 : d : 	(0.083194655468 0.245083551895 0.965925826289)
	I3 : dAve : 	(0.00262038918453 0.00531362362136 0.0163624617374) : omega : 	0.0175372336349 : d : 	(0.114472736462 0.232127746542 0.965925826289)
	I4 : dAve : 	(0.00329153844998 0.00492613541228 0.0163624617374) : omega : 	0.0175372336349 : d : 	(0.143792157198 0.215200171088 0.965925826289)
	I5 : dAve : 	(0.00390636857998 0.00445435966052 0.0163624617374) : omega : 	0.0175372336349 : d : 	(0.170651254257 0.194590461042 0.965925826289)
	I6 : dAve : 	(0.00445435966052 0.00390636857998 0.0163624617374) : omega : 	0.0175372336349 : d : 	(0.194590461042 0.170651254257 0.965925826289)
	I7 : dAve : 	(0.00492613541228 0.00329153844998 0.0163624617374) : omega : 	0.0175372336349 : d : 	(0.215200171088 0.143792157198 0.965925826289)
	I8 : dAve : 	(0.00531362362136 0.00262038918453 0.0163624617374) : omega : 	0.0175372336349 : d : 	(0.232127746542 0.114472736462 0.965925826289)
	I9 : dAve : 	(0.00561019425706 0.00190440433361 0.0163624617374) : omega : 	0.0175372336349 : d : 	(0.245083551895 0.083194655468 0.965925826289)
	I10 : dAve : 	(0.00581077291359 0.00115583459655 0.0163624617374) : omega : 	0.0175372336349 : d : 	(0.253845909725 0.050493090853 0.965925826289)
	I11 : dAve : 	(0.00591192763451 0.000387488209079 0.0163624617374) : omega : 	0.0175372336349 : d : 	(0.25826489366 0.0169275754541 0.965925826289)
	I12 : dAve : 	(0.00591192763451 -0.000387488209079 0.0163624617374) : omega : 	0.0175372336349 : d : 	(0.25826489366 -0.0169275754541 0.965925826289)
	I13 : dAve : 	(0.00581077291359 -0.00115583459655 0.0163624617374) : omega : 	0.0175372336349 : d : 	(0.253845909725 -0.050493090853 0.965925826289)
	I14 : dAve : 	(0.00561019425706 -0.00190440433361 0.0163624617374) : omega : 	0.0175372336349 : d : 	(0.245083551895 -0.083194655468 0.965925826289)
	I15 : dAve : 	(0.00531362362136 -0.00262038918453 0.0163624617374) : omega : 	0.0175372336349 : d : 	(0.232127746542 -0.114472736462 0.965925826289)
	I16 : dAve : 	(0.00492613541228 -0.00329153844998 0.0163624617374) : omega : 	0.0175372336349 : d : 	(0.215200171088 -0.143792157198 0.965925826289)
	I17 : dAve : 	(0.00445435966052 -0.00390636857998 0.0163624617374) : omega : 	0.0175372336349 : d : 	(0.194590461042 -0.170651254257 0.965925826289)
	I18 : dAve : 	(0.00390636857998 -0.00445435966052 0.0163624617374) : omega : 	0.0175372336349 : d : 	(0.170651254257 -0.194590461042 0.965925826289)
	I19 : dAve : 	(0.00329153844998 -0.00492613541228 0.0163624617374) : omega : 	0.0175372336349 : d : 	(0.143792157198 -0.215200171088 0.965925826289)
	I20 : dAve : 	(0.00262038918453 -0.00531362362136 0.0163624617374) : omega : 	0.0175372336349 : d : 	(0.114472736462 -0.232127746542 0.965925826289)
	I21 : dAve : 	(0.00190440433361 -0.00561019425706 0.0163624617374) : omega : 	0.0175372336349 : d : 	(0.083194655468 -0.245083551895 0.965925826289)
	I22 : dAve : 	(0.00115583459655 -0.00581077291359 0.0163624617374) : omega : 	0.0175372336349 : d : 	(0.050493090853 -0.253845909725 0.965925826289)
	I23 : dAve : 	(0.000387488209079 -0.00591192763451 0.0163624617374) : omega : 	0.0175372336349 : d : 	(0.0169275754541 -0.25826489366 0.965925826289)
	I24 : dAve : 	(-0.000387488209079 -0.00591192763451 0.0163624617374) : omega : 	0.0175372336349 : d : 	(-0.0169275754541 -0.25826489366 0.965925826289)
	I25 : dAve : 	(-0.00115583459655 -0.00581077291359 0.0163624617374) : omega : 	0.0175372336349 : d : 	(-0.050493090853 -0.253845909725 0.965925826289)
	I26 : dAve : 	(-0.00190440433361 -0.00561019425706 0.0163624617374) : omega : 	0.0175372336349 : d : 	(-0.083194655468 -0.245083551895 0.965925826289)
	I27 : dAve : 	(-0.00262038918453 -0.00531362362136 0.0163624617374) : omega : 	0.0175372336349 : d : 	(-0.114472736462 -0.232127746542 0.965925826289)
	I28 : dAve : 	(-0.00329153844998 -0.00492613541228 0.0163624617374) : omega : 	0.0175372336349 : d : 	(-0.143792157198 -0.215200171088 0.965925826289)
	I29 : dAve : 	(-0.00390636857998 -0.00445435966052 0.0163624617374) : omega : 	0.0175372336349 : d : 	(-0.170651254257 -0.194590461042 0.965925826289)
	I30 : dAve : 	(-0.00445435966052 -0.00390636857998 0.0163624617374) : omega : 	0.0175372336349 : d : 	(-0.194590461042 -0.170651254257 0.965925826289)
	I31 : dAve : 	(-0.00492613541228 -0.00329153844998 0.0163624617374) : omega : 	0.0175372336349 : d : 	(-0.215200171088 -0.143792157198 0.965925826289)
	I32 : dAve : 	(-0.00531362362136 -0.00262038918453 0.0163624617374) : omega : 	0.0175372336349 : d : 	(-0.232127746542 -0.114472736462 0.965925826289)
	I33 : dAve : 	(-0.00561019425706 -0.00190440433361 0.0163624617374) : omega : 	0.0175372336349 : d : 	(-0.245083551895 -0.083194655468 0.965925826289)
	I34 : dAve : 	(-0.00581077291359 -0.00115583459655 0.0163624617374) : omega : 	0.0175372336349 : d : 	(-0.253845909725 -0.050493090853 0.965925826289)
	I35 : dAve : 	(-0.00591192763451 -0.000387488209079 0.0163624617374) : omega : 	0.0175372336349 : d : 	(-0.25826489366 -0.0169275754541 0.965925826289)
	I36 : dAve : 	(-0.00591192763451 0.000387488209079 0.0163624617374) : omega : 	0.0175372336349 : d : 	(-0.25826489366 0.0169275754541 0.965925826289)
	I37 : dAve : 	(-0.00581077291359 0.00115583459655 0.0163624617374) : omega : 	0.0175372336349 : d : 	(-0.253845909725 0.050493090853 0.965925826289)
	I38 : dAve : 	(-0.00561019425706 0.00190440433361 0.0163624617374) : omega : 	0.0175372336349 : d : 	(-0.245083551895 0.083194655468 0.965925826289)
	I39 : dAve : 	(-0.00531362362136 0.00262038918453 0.0163624617374) : omega : 	0.0175372336349 : d : 	(-0.232127746542 0.114472736462 0.965925826289)
	I40 : dAve : 	(-0.00492613541228 0.00329153844998 0.0163624617374) : omega : 	0.0175372336349 : d : 	(-0.215200171088 0.143792157198 0.965925826289)
	I41 : dAve : 	(-0.00445435966052 0.00390636857998 0.0163624617374) : omega : 	0.0175372336349 : d : 	(-0.194590461042 0.170651254257 0.965925826289)
	I42 : dAve : 	(-0.00390636857998 0.00445435966052 0.0163624617374) : omega : 	0.0175372336349 : d : 	(-0.170651254257 0.194590461042 0.965925826289)
	I43 : dAve : 	(-0.00329153844998 0.00492613541228 0.0163624617374) : omega : 	0.0175372336349 : d : 	(-0.143792157198 0.215200171088 0.965925826289)
	I44 : dAve : 	(-0.00262038918453 0.00531362362136 0.0163624617374) : omega : 	0.0175372336349 : d : 	(-0.114472736462 0.232127746542 0.965925826289)
	I45 : dAve : 	(-0.00190440433361 0.00561019425706 0.0163624617374) : omega : 	0.0175372336349 : d : 	(-0.083194655468 0.245083551895 0.965925826289)
	I46 : dAve : 	(-0.00115583459655 0.00581077291359 0.0163624617374) : omega : 	0.0175372336349 : d : 	(-0.050493090853 0.253845909725 0.965925826289)
	I47 : dAve : 	(-0.000387488209079 0.00591192763451 0.0163624617374) : omega : 	0.0175372336349 : d : 	(-0.0169275754541 0.25826489366 0.965925826289)
	I48 : dAve : 	(0.00223973005487 0.034171677215 0.0327249234749) : omega : 	0.0479126133149 : d : 	(0.0462469961895 0.70559281129 0.707106781187)
	I49 : dAve : 	(0.00668086776241 0.0335869903436 0.0327249234749) : omega : 	0.0479126133149 : d : 	(0.137949689641 0.693519922661 0.707106781187)
	I50 : dAve : 	(0.0110076939702 0.0324276207555 0.0327249234749) : omega : 	0.0479126133149 : d : 	(0.227292025657 0.669580715876 0.707106781187)
	I51 : dAve : 	(0.0151461754823 0.0307134055855 0.0327249234749) : omega : 	0.0479126133149 : d : 	(0.312745332096 0.634184797399 0.707106781187)
	I52 : dAve : 	(0.0190255017326 0.0284736755306 0.0327249234749) : omega : 	0.0479126133149 : d : 	(0.392847479194 0.58793780121 0.707106781187)
	I53 : dAve : 	(0.0225792963734 0.025746752993 0.0327249234749) : omega : 	0.0479126133149 : d : 	(0.466227897004 0.531631026234 0.707106781187)
	I54 : dAve : 	(0.025746752993 0.0225792963734 0.0327249234749) : omega : 	0.0479126133149 : d : 	(0.531631026234 0.466227897004 0.707106781187)
	I55 : dAve : 	(0.0284736755306 0.0190255017326 0.0327249234749) : omega : 	0.0479126133149 : d : 	(0.58793780121 0.392847479194 0.707106781187)
	I56 : dAve : 	(0.0307134055855 0.0151461754823 0.0327249234749) : omega : 	0.0479126133149 : d : 	(0.634184797399 0.312745332096 0.707106781187)
	I57 : dAve : 	(0.0324276207555 0.0110076939702 0.0327249234749) : omega : 	0.0479126133149 : d : 	(0.669580715876 0.227292025657 0.707106781187)
	I58 : dAve : 	(0.0335869903436 0.00668086776241 0.0327249234749) : omega : 	0.0479126133149 : d : 	(0.693519922661 0.137949689641 0.707106781187)
	I59 : dAve : 	(0.034171677215 0.00223973005487 0.0327249234749) : omega : 	0.0479126133149 : d : 	(0.70559281129 0.0462469961895 0.707106781187)
	I60 : dAve : 	(0.034171677215 -0.00223973005487 0.0327249234749) : omega : 	0.0479126133149 : d : 	(0.70559281129 -0.0462469961895 0.707106781187)
	I61 : dAve : 	(0.0335869903436 -0.00668086776241 0.0327249234749) : omega : 	0.0479126133149 : d : 	(0.693519922661 -0.137949689641 0.707106781187)
	I62 : dAve : 	(0.0324276207555 -0.0110076939702 0.0327249234749) : omega : 	0.0479126133149 : d : 	(0.669580715876 -0.227292025657 0.707106781187)
	I63 : dAve : 	(0.0307134055855 -0.0151461754823 0.0327249234749) : omega : 	0.0479126133149 : d : 	(0.634184797399 -0.312745332096 0.707106781187)
	I64 : dAve : 	(0.0284736755306 -0.0190255017326 0.0327249234749) : omega : 	0.0479126133149 : d : 	(0.58793780121 -0.392847479194 0.707106781187)
	I65 : dAve : 	(0.025746752993 -0.0225792963734 0.0327249234749) : omega : 	0.0479126133149 : d : 	(0.531631026234 -0.466227897004 0.707106781187)
	I66 : dAve : 	(0.0225792963734 -0.025746752993 0.0327249234749) : omega : 	0.0479126133149 : d : 	(0.466227897004 -0.531631026234 0.707106781187)
	I67 : dAve : 	(0.0190255017326 -0.0284736755306 0.0327249234749) : omega : 	0.0479126133149 : d : 	(0.392847479194 -0.58793780121 0.707106781187)
	I68 : dAve : 	(0.0151461754823 -0.0307134055855 0.0327249234749) : omega : 	0.0479126133149 : d : 	(0.312745332096 -0.634184797399 0.707106781187)
	I69 : dAve : 	(0.0110076939702 -0.0324276207555 0.0327249234749) : omega : 	0.0479126133149 : d : 	(0.227292025657 -0.669580715876 0.707106781187)
	I70 : dAve : 	(0.00668086776241 -0.0335869903436 0.0327249234749) : omega : 	0.0479126133149 : d : 	(0.137949689641 -0.693519922661 0.707106781187)
	I71 : dAve : 	(0.00223973005487 -0.034171677215 0.0327249234749) : omega : 	0.0479126133149 : d : 	(0.0462469961895 -0.70559281129 0.707106781187)
	I72 : dAve : 	(-0.00223973005487 -0.034171677215 0.0327249234749) : omega : 	0.0479126133149 : d : 	(-0.0462469961895 -0.70559281129 0.707106781187)
	I73 : dAve : 	(-0.00668086776241 -0.0335869903436 0.0327249234749) : omega : 	0.0479126133149 : d : 	(-0.137949689641 -0.693519922661 0.707106781187)
	I74 : dAve : 	(-0.0110076939702 -0.0324276207555 0.0327249234749) : omega : 	0.0479126133149 : d : 	(-0.227292025657 -0.669580715876 0.707106781187)
	I75 : dAve : 	(-0.0151461754823 -0.0307134055855 0.0327249234749) : omega : 	0.0479126133149 : d : 	(-0.312745332096 -0.634184797399 0.707106781187)
	I76 : dAve : 	(-0.0190255017326 -0.0284736755306 0.0327249234749) : omega : 	0.0479126133149 : d : 	(-0.392847479194 -0.58793780121 0.707106781187)
	I77 : dAve : 	(-0.0225792963734 -0.025746752993 0.0327249234749) : omega : 	0.0479126133149 : d : 	(-0.466227897004 -0.531631026234 0.707106781187)
	I78 : dAve : 	(-0.025746752993 -0.0225792963734 0.0327249234749) : omega : 	0.0479126133149 : d : 	(-0.531631026234 -0.466227897004 0.707106781187)
	I79 : dAve : 	(-0.0284736755306 -0.0190255017326 0.0327249234749) : omega : 	0.0479126133149 : d : 	(-0.58793780121 -0.392847479194 0.707106781187)
	I80 : dAve : 	(-0.0307134055855 -0.0151461754823 0.0327249234749) : omega : 	0.0479126133149 : d : 	(-0.634184797399 -0.312745332096 0.707106781187)
	I81 : dAve : 	(-0.0324276207555 -0.0110076939702 0.0327249234749) : omega : 	0.0479126133149 : d : 	(-0.669580715876 -0.227292025657 0.707106781187)
	I82 : dAve : 	(-0.0335869903436 -0.00668086776241 0.0327249234749) : omega : 	0.0479126133149 : d : 	(-0.693519922661 -0.137949689641 0.707106781187)
	I83 : dAve : 	(-0.034171677215 -0.00223973005487 0.0327249234749) : omega : 	0.0479126133149 : d : 	(-0.70559281129 -0.0462469961895 0.707106781187)
	I84 : dAve : 	(-0.034171677215 0.00223973005487 0.0327249234749) : omega : 	0.0479126133149 : d : 	(-0.70559281129 0.0462469961895 0.707106781187)
	I85 : dAve : 	(-0.0335869903436 0.00668086776241 0.0327249234749) : omega : 	0.0479126133149 : d : 	(-0.693519922661 0.137949689641 0.707106781187)
	I86 : dAve : 	(-0.0324276207555 0.0110076939702 0.0327249234749) : omega : 	0.0479126133149 : d : 	(-0.669580715876 0.227292025657 0.707106781187)
	I87 : dAve : 	(-0.0307134055855 0.0151461754823 0.0327249234749) : omega : 	0.0479126133149 : d : 	(-0.634184797399 0.312745332096 0.707106781187)
	I88 : dAve : 	(-0.0284736755306 0.0190255017326 0.0327249234749) : omega : 	0.0479126133149 : d : 	(-0.58793780121 0.392847479194 0.707106781187)
	I89 : dAve : 	(-0.025746752993 0.0225792963734 0.0327249234749) : omega : 	0.0479126133149 : d : 	(-0.531631026234 0.466227897004 0.707106781187)
	I90 : dAve : 	(-0.0225792963734 0.025746752993 0.0327249234749) : omega : 	0.0479126133149 : d : 	(-0.466227897004 0.531631026234 0.707106781187)
	I91 : dAve : 	(-0.0190255017326 0.0284736755306 0.0327249234749) : omega : 	0.0479126133149 : d : 	(-0.392847479194 0.58793780121 0.707106781187)
	I92 : dAve : 	(-0.0151461754823 0.0307134055855 0.0327249234749) : omega : 	0.0479126133149 : d : 	(-0.312745332096 0.634184797399 0.707106781187)
	I93 : dAve : 	(-0.0110076939702 0.0324276207555 0.0327249234749) : omega : 	0.0479126133149 : d : 	(-0.227292025657 0.669580715876 0.707106781187)
	I94 : dAve : 	(-0.00668086776241 0.0335869903436 0.0327249234749) : omega : 	0.0479126133149 : d : 	(-0.137949689641 0.693519922661 0.707106781187)
	I95 : dAve : 	(-0.00223973005487 0.034171677215 0.0327249234749) : omega : 	0.0479126133149 : d : 	(-0.0462469961895 0.70559281129 0.707106781187)
	I96 : dAve : 	(0.00409197190067 0.0624314267954 0.0163624617374) : omega : 	0.0654498469498 : d : 	(0.0631745716435 0.963857704949 0.258819045103)
	I97 : dAve : 	(0.0122059009283 0.0613632077737 0.0163624617374) : omega : 	0.0654498469498 : d : 	(0.188442780494 0.947365832386 0.258819045103)
	I98 : dAve : 	(0.0201109836069 0.0592450472539 0.0163624617374) : omega : 	0.0654498469498 : d : 	(0.310486681125 0.914664267771 0.258819045103)
	I99 : dAve : 	(0.0276719617802 0.0561131875497 0.0163624617374) : omega : 	0.0654498469498 : d : 	(0.427218068558 0.866312543941 0.258819045103)
	I100 : dAve : 	(0.0347594650153 0.052021215649 0.0163624617374) : omega : 	0.0654498469498 : d : 	(0.536639636391 0.803137972298 0.258819045103)
	I101 : dAve : 	(0.0412522241668 0.0470391463256 0.0163624617374) : omega : 	0.0654498469498 : d : 	(0.636879151261 0.726221487276 0.258819045103)
	I102 : dAve : 	(0.0470391463256 0.0412522241668 0.0163624617374) : omega : 	0.0654498469498 : d : 	(0.726221487276 0.636879151261 0.258819045103)
	I103 : dAve : 	(0.052021215649 0.0347594650153 0.0163624617374) : omega : 	0.0654498469498 : d : 	(0.803137972298 0.536639636391 0.258819045103)
	I104 : dAve : 	(0.0561131875497 0.0276719617802 0.0163624617374) : omega : 	0.0654498469498 : d : 	(0.866312543941 0.427218068558 0.258819045103)
	I105 : dAve : 	(0.0592450472539 0.0201109836069 0.0163624617374) : omega : 	0.0654498469498 : d : 	(0.914664267771 0.310486681125 0.258819045103)
	I106 : dAve : 	(0.0613632077737 0.0122059009283 0.0163624617374) : omega : 	0.0654498469498 : d : 	(0.947365832386 0.188442780494 0.258819045103)
	I107 : dAve : 	(0.0624314267954 0.00409197190067 0.0163624617374) : omega : 	0.0654498469498 : d : 	(0.963857704949 0.0631745716435 0.258819045103)
	I108 : dAve : 	(0.0624314267954 -0.00409197190067 0.0163624617374) : omega : 	0.0654498469498 : d : 	(0.963857704949 -0.0631745716435 0.258819045103)
	I109 : dAve : 	(0.0613632077737 -0.0122059009283 0.0163624617374) : omega : 	0.0654498469498 : d : 	(0.947365832386 -0.188442780494 0.258819045103)
	I110 : dAve : 	(0.0592450472539 -0.0201109836069 0.0163624617374) : omega : 	0.0654498469498 : d : 	(0.914664267771 -0.310486681125 0.258819045103)
	I111 : dAve : 	(0.0561131875497 -0.0276719617802 0.0163624617374) : omega : 	0.0654498469498 : d : 	(0.866312543941 -0.427218068558 0.258819045103)
	I112 : dAve : 	(0.052021215649 -0.0347594650153 0.0163624617374) : omega : 	0.0654498469498 : d : 	(0.803137972298 -0.536639636391 0.258819045103)
	I113 : dAve : 	(0.0470391463256 -0.0412522241668 0.0163624617374) : omega : 	0.0654498469498 : d : 	(0.726221487276 -0.636879151261 0.258819045103)
	I114 : dAve : 	(0.0412522241668 -0.0470391463256 0.0163624617374) : omega : 	0.0654498469498 : d : 	(0.636879151261 -0.726221487276 0.258819045103)
	I115 : dAve : 	(0.0347594650153 -0.052021215649 0.0163624617374) : omega : 	0.0654498469498 : d : 	(0.536639636391 -0.803137972298 0.258819045103)
	I116 : dAve : 	(0.0276719617802 -0.0561131875497 0.0163624617374) : omega : 	0.0654498469498 : d : 	(0.427218068558 -0.866312543941 0.258819045103)
	I117 : dAve : 	(0.0201109836069 -0.0592450472539 0.0163624617374) : omega : 	0.0654498469498 : d : 	(0.310486681125 -0.914664267771 0.258819045103)
	I118 : dAve : 	(0.0122059009283 -0.0613632077737 0.0163624617374) : omega : 	0.0654498469498 : d : 	(0.188442780494 -0.947365832386 0.258819045103)
	I119 : dAve : 	(0.00409197190067 -0.0624314267954 0.0163624617374) : omega : 	0.0654498469498 : d : 	(0.0631745716435 -0.963857704949 0.258819045103)
	I120 : dAve : 	(-0.00409197190067 -0.0624314267954 0.0163624617374) : omega : 	0.0654498469498 : d : 	(-0.0631745716435 -0.963857704949 0.258819045103)
	I121 : dAve : 	(-0.0122059009283 -0.0613632077737 0.0163624617374) : omega : 	0.0654498469498 : d : 	(-0.188442780494 -0.947365832386 0.258819045103)
	I122 : dAve : 	(-0.0201109836069 -0.0592450472539 0.0163624617374) : omega : 	0.0654498469498 : d : 	(-0.310486681125 -0.914664267771 0.258819045103)
	I123 : dAve : 	(-0.0276719617802 -0.0561131875497 0.0163624617374) : omega : 	0.0654498469498 : d : 	(-0.427218068558 -0.866312543941 0.258819045103)
	I124 : dAve : 	(-0.0347594650153 -0.052021215649 0.0163624617374) : omega : 	0.0654498469498 : d : 	(-0.536639636391 -0.803137972298 0.258819045103)
	I125 : dAve : 	(-0.0412522241668 -0.0470391463256 0.0163624617374) : omega : 	0.0654498469498 : d : 	(-0.636879151261 -0.726221487276 0.258819045103)
	I126 : dAve : 	(-0.0470391463256 -0.0412522241668 0.0163624617374) : omega : 	0.0654498469498 : d : 	(-0.726221487276 -0.636879151261 0.258819045103)
	I127 : dAve : 	(-0.052021215649 -0.0347594650153 0.0163624617374) : omega : 	0.0654498469498 : d : 	(-0.803137972298 -0.536639636391 0.258819045103)
	I128 : dAve : 	(-0.0561131875497 -0.0276719617802 0.0163624617374) : omega : 	0.0654498469498 : d : 	(-0.866312543941 -0.427218068558 0.258819045103)
	I129 : dAve : 	(-0.0592450472539 -0.0201109836069 0.0163624617374) : omega : 	0.0654498469498 : d : 	(-0.914664267771 -0.310486681125 0.258819045103)
	I130 : dAve : 	(-0.0613632077737 -0.0122059009283 0.0163624617374) : omega : 	0.0654498469498 : d : 	(-0.947365832386 -0.188442780494 0.258819045103)
	I131 : dAve : 	(-0.0624314267954 -0.00409197190067 0.0163624617374) : omega : 	0.0654498469498 : d : 	(-0.963857704949 -0.0631745716435 0.258819045103)
	I132 : dAve : 	(-0.0624314267954 0.00409197190067 0.0163624617374) : omega : 	0.0654498469498 : d : 	(-0.963857704949 0.0631745716435 0.258819045103)
	I133 : dAve : 	(-0.0613632077737 0.0122059009283 0.0163624617374) : omega : 	0.0654498469498 : d : 	(-0.947365832386 0.188442780494 0.258819045103)
	I134 : dAve : 	(-0.0592450472539 0.0201109836069 0.0163624617374) : omega : 	0.0654498469498 : d : 	(-0.914664267771 0.310486681125 0.258819045103)
	I135 : dAve : 	(-0.0561131875497 0.0276719617802 0.0163624617374) : omega : 	0.0654498469498 : d : 	(-0.866312543941 0.427218068558 0.258819045103)
	I136 : dAve : 	(-0.052021215649 0.0347594650153 0.0163624617374) : omega : 	0.0654498469498 : d : 	(-0.803137972298 0.536639636391 0.258819045103)
	I137 : dAve : 	(-0.0470391463256 0.0412522241668 0.0163624617374) : omega : 	0.0654498469498 : d : 	(-0.726221487276 0.636879151261 0.258819045103)
	I138 : dAve : 	(-0.0412522241668 0.0470391463256 0.0163624617374) : omega : 	0.0654498469498 : d : 	(-0.636879151261 0.726221487276 0.258819045103)
	I139 : dAve : 	(-0.0347594650153 0.052021215649 0.0163624617374) : omega : 	0.0654498469498 : d : 	(-0.536639636391 0.803137972298 0.258819045103)
	I140 : dAve : 	(-0.0276719617802 0.0561131875497 0.0163624617374) : omega : 	0.0654498469498 : d : 	(-0.427218068558 0.866312543941 0.258819045103)
	I141 : dAve : 	(-0.0201109836069 0.0592450472539 0.0163624617374) : omega : 	0.0654498469498 : d : 	(-0.310486681125 0.914664267771 0.258819045103)
	I142 : dAve : 	(-0.0122059009283 0.0613632077737 0.0163624617374) : omega : 	0.0654498469498 : d : 	(-0.188442780494 0.947365832386 0.258819045103)
	I143 : dAve : 	(-0.00409197190067 0.0624314267954 0.0163624617374) : omega : 	0.0654498469498 : d : 	(-0.0631745716435 0.963857704949 0.258819045103)
	I144 : dAve : 	(0.00409197190067 0.0624314267954 -0.0163624617374) : omega : 	0.0654498469498 : d : 	(0.0631745716435 0.963857704949 -0.258819045103)
	I145 : dAve : 	(0.0122059009283 0.0613632077737 -0.0163624617374) : omega : 	0.0654498469498 : d : 	(0.188442780494 0.947365832386 -0.258819045103)
	I146 : dAve : 	(0.0201109836069 0.0592450472539 -0.0163624617374) : omega : 	0.0654498469498 : d : 	(0.310486681125 0.914664267771 -0.258819045103)
	I147 : dAve : 	(0.0276719617802 0.0561131875497 -0.0163624617374) : omega : 	0.0654498469498 : d : 	(0.427218068558 0.866312543941 -0.258819045103)
	I148 : dAve : 	(0.0347594650153 0.052021215649 -0.0163624617374) : omega : 	0.0654498469498 : d : 	(0.536639636391 0.803137972298 -0.258819045103)
	I149 : dAve : 	(0.0412522241668 0.0470391463256 -0.0163624617374) : omega : 	0.0654498469498 : d : 	(0.636879151261 0.726221487276 -0.258819045103)
	I150 : dAve : 	(0.0470391463256 0.0412522241668 -0.0163624617374) : omega : 	0.0654498469498 : d : 	(0.726221487276 0.636879151261 -0.258819045103)
	I151 : dAve : 	(0.052021215649 0.0347594650153 -0.0163624617374) : omega : 	0.0654498469498 : d : 	(0.803137972298 0.536639636391 -0.258819045103)
	I152 : dAve : 	(0.0561131875497 0.0276719617802 -0.0163624617374) : omega : 	0.0654498469498 : d : 	(0.866312543941 0.427218068558 -0.258819045103)
	I153 : dAve : 	(0.0592450472539 0.0201109836069 -0.0163624617374) : omega : 	0.0654498469498 : d : 	(0.914664267771 0.310486681125 -0.258819045103)
	I154 : dAve : 	(0.0613632077737 0.0122059009283 -0.0163624617374) : omega : 	0.0654498469498 : d : 	(0.947365832386 0.188442780494 -0.258819045103)
	I155 : dAve : 	(0.0624314267954 0.00409197190067 -0.0163624617374) : omega : 	0.0654498469498 : d : 	(0.963857704949 0.0631745716435 -0.258819045103)
	I156 : dAve : 	(0.0624314267954 -0.00409197190067 -0.0163624617374) : omega : 	0.0654498469498 : d : 	(0.963857704949 -0.0631745716435 -0.258819045103)
	I157 : dAve : 	(0.0613632077737 -0.0122059009283 -0.0163624617374) : omega : 	0.0654498469498 : d : 	(0.947365832386 -0.188442780494 -0.258819045103)
	I158 : dAve : 	(0.0592450472539 -0.0201109836069 -0.0163624617374) : omega : 	0.0654498469498 : d : 	(0.914664267771 -0.310486681125 -0.258819045103)
	I159 : dAve : 	(0.0561131875497 -0.0276719617802 -0.0163624617374) : omega : 	0.0654498469498 : d : 	(0.866312543941 -0.427218068558 -0.258819045103)
	I160 : dAve : 	(0.052021215649 -0.0347594650153 -0.0163624617374) : omega : 	0.0654498469498 : d : 	(0.803137972298 -0.536639636391 -0.258819045103)
	I161 : dAve : 	(0.0470391463256 -0.0412522241668 -0.0163624617374) : omega : 	0.0654498469498 : d : 	(0.726221487276 -0.636879151261 -0.258819045103)
	I162 : dAve : 	(0.0412522241668 -0.0470391463256 -0.0163624617374) : omega : 	0.0654498469498 : d : 	(0.636879151261 -0.726221487276 -0.258819045103)
	I163 : dAve : 	(0.0347594650153 -0.052021215649 -0.0163624617374) : omega : 	0.0654498469498 : d : 	(0.536639636391 -0.803137972298 -0.258819045103)
	I164 : dAve : 	(0.0276719617802 -0.0561131875497 -0.0163624617374) : omega : 	0.0654498469498 : d : 	(0.427218068558 -0.866312543941 -0.258819045103)
	I165 : dAve : 	(0.0201109836069 -0.0592450472539 -0.0163624617374) : omega : 	0.0654498469498 : d : 	(0.310486681125 -0.914664267771 -0.258819045103)
	I166 : dAve : 	(0.0122059009283 -0.0613632077737 -0.0163624617374) : omega : 	0.0654498469498 : d : 	(0.188442780494 -0.947365832386 -0.258819045103)
	I167 : dAve : 	(0.00409197190067 -0.0624314267954 -0.0163624617374) : omega : 	0.0654498469498 : d : 	(0.0631745716435 -0.963857704949 -0.258819045103)
	I168 : dAve : 	(-0.00409197190067 -0.0624314267954 -0.0163624617374) : omega : 	0.0654498469498 : d : 	(-0.0631745716435 -0.963857704949 -0.258819045103)
	I169 : dAve : 	(-0.0122059009283 -0.0613632077737 -0.0163624617374) : omega : 	0.0654498469498 : d : 	(-0.188442780494 -0.947365832386 -0.258819045103)
	I170 : dAve : 	(-0.0201109836069 -0.0592450472539 -0.0163624617374) : omega : 	0.0654498469498 : d : 	(-0.310486681125 -0.914664267771 -0.258819045103)
	I171 : dAve : 	(-0.0276719617802 -0.0561131875497 -0.0163624617374) : omega : 	0.0654498469498 : d : 	(-0.427218068558 -0.866312543941 -0.258819045103)
	I172 : dAve : 	(-0.0347594650153 -0.052021215649 -0.0163624617374) : omega : 	0.0654498469498 : d : 	(-0.536639636391 -0.803137972298 -0.258819045103)
	I173 : dAve : 	(-0.0412522241668 -0.0470391463256 -0.0163624617374) : omega : 	0.0654498469498 : d : 	(-0.636879151261 -0.726221487276 -0.258819045103)
	I174 : dAve : 	(-0.0470391463256 -0.0412522241668 -0.0163624617374) : omega : 	0.0654498469498 : d : 	(-0.726221487276 -0.636879151261 -0.258819045103)
	I175 : dAve : 	(-0.052021215649 -0.0347594650153 -0.0163624617374) : omega : 	0.0654498469498 : d : 	(-0.803137972298 -0.536639636391 -0.258819045103)
	I176 : dAve : 	(-0.0561131875497 -0.0276719617802 -0.0163624617374) : omega : 	0.0654498469498 : d : 	(-0.866312543941 -0.427218068558 -0.258819045103)
	I177 : dAve : 	(-0.0592450472539 -0.0201109836069 -0.0163624617374) : omega : 	0.0654498469498 : d : 	(-0.914664267771 -0.310486681125 -0.258819045103)
	I178 : dAve : 	(-0.0613632077737 -0.0122059009283 -0.0163624617374) : omega : 	0.0654498469498 : d : 	(-0.947365832386 -0.188442780494 -0.258819045103)
	I179 : dAve : 	(-0.0624314267954 -0.00409197190067 -0.0163624617374) : omega : 	0.0654498469498 : d : 	(-0.963857704949 -0.0631745716435 -0.258819045103)
	I180 : dAve : 	(-0.0624314267954 0.00409197190067 -0.0163624617374) : omega : 	0.0654498469498 : d : 	(-0.963857704949 0.0631745716435 -0.258819045103)
	I181 : dAve : 	(-0.0613632077737 0.0122059009283 -0.0163624617374) : omega : 	0.0654498469498 : d : 	(-0.947365832386 0.188442780494 -0.258819045103)
	I182 : dAve : 	(-0.0592450472539 0.0201109836069 -0.0163624617374) : omega : 	0.0654498469498 : d : 	(-0.914664267771 0.310486681125 -0.258819045103)
	I183 : dAve : 	(-0.0561131875497 0.0276719617802 -0.0163624617374) : omega : 	0.0654498469498 : d : 	(-0.866312543941 0.427218068558 -0.258819045103)
	I184 : dAve : 	(-0.052021215649 0.0347594650153 -0.0163624617374) : omega : 	0.0654498469498 : d : 	(-0.803137972298 0.536639636391 -0.258819045103)
	I185 : dAve : 	(-0.0470391463256 0.0412522241668 -0.0163624617374) : omega : 	0.0654498469498 : d : 	(-0.726221487276 0.636879151261 -0.258819045103)
	I186 : dAve : 	(-0.0412522241668 0.0470391463256 -0.0163624617374) : omega : 	0.0654498469498 : d : 	(-0.636879151261 0.726221487276 -0.258819045103)
	I187 : dAve : 	(-0.0347594650153 0.052021215649 -0.0163624617374) : omega : 	0.0654498469498 : d : 	(-0.536639636391 0.803137972298 -0.258819045103)
	I188 : dAve : 	(-0.0276719617802 0.0561131875497 -0.0163624617374) : omega : 	0.0654498469498 : d : 	(-0.427218068558 0.866312543941 -0.258819045103)
	I189 : dAve : 	(-0.0201109836069 0.0592450472539 -0.0163624617374) : omega : 	0.0654498469498 : d : 	(-0.310486681125 0.914664267771 -0.258819045103)
	I190 : dAve : 	(-0.0122059009283 0.0613632077737 -0.0163624617374) : omega : 	0.0654498469498 : d : 	(-0.188442780494 0.947365832386 -0.258819045103)
	I191 : dAve : 	(-0.00409197190067 0.0624314267954 -0.0163624617374) : omega : 	0.0654498469498 : d : 	(-0.0631745716435 0.963857704949 -0.258819045103)
	I192 : dAve : 	(0.00223973005487 0.034171677215 -0.0327249234749) : omega : 	0.0479126133149 : d : 	(0.0462469961895 0.70559281129 -0.707106781187)
	I193 : dAve : 	(0.00668086776241 0.0335869903436 -0.0327249234749) : omega : 	0.0479126133149 : d : 	(0.137949689641 0.693519922661 -0.707106781187)
	I194 : dAve : 	(0.0110076939702 0.0324276207555 -0.0327249234749) : omega : 	0.0479126133149 : d : 	(0.227292025657 0.669580715876 -0.707106781187)
	I195 : dAve : 	(0.0151461754823 0.0307134055855 -0.0327249234749) : omega : 	0.0479126133149 : d : 	(0.312745332096 0.634184797399 -0.707106781187)
	I196 : dAve : 	(0.0190255017326 0.0284736755306 -0.0327249234749) : omega : 	0.0479126133149 : d : 	(0.392847479194 0.58793780121 -0.707106781187)
	I197 : dAve : 	(0.0225792963734 0.025746752993 -0.0327249234749) : omega : 	0.0479126133149 : d : 	(0.466227897004 0.531631026234 -0.707106781187)
	I198 : dAve : 	(0.025746752993 0.0225792963734 -0.0327249234749) : omega : 	0.0479126133149 : d : 	(0.531631026234 0.466227897004 -0.707106781187)
	I199 : dAve : 	(0.0284736755306 0.0190255017326 -0.0327249234749) : omega : 	0.0479126133149 : d : 	(0.58793780121 0.392847479194 -0.707106781187)
	I200 : dAve : 	(0.0307134055855 0.0151461754823 -0.0327249234749) : omega : 	0.0479126133149 : d : 	(0.634184797399 0.312745332096 -0.707106781187)
	I201 : dAve : 	(0.0324276207555 0.0110076939702 -0.0327249234749) : omega : 	0.0479126133149 : d : 	(0.669580715876 0.227292025657 -0.707106781187)
	I202 : dAve : 	(0.0335869903436 0.00668086776241 -0.0327249234749) : omega : 	0.0479126133149 : d : 	(0.693519922661 0.137949689641 -0.707106781187)
	I203 : dAve : 	(0.034171677215 0.00223973005487 -0.0327249234749) : omega : 	0.0479126133149 : d : 	(0.70559281129 0.0462469961895 -0.707106781187)
	I204 : dAve : 	(0.034171677215 -0.00223973005487 -0.0327249234749) : omega : 	0.0479126133149 : d : 	(0.70559281129 -0.0462469961895 -0.707106781187)
	I205 : dAve : 	(0.0335869903436 -0.00668086776241 -0.0327249234749) : omega : 	0.0479126133149 : d : 	(0.693519922661 -0.137949689641 -0.707106781187)
	I206 : dAve : 	(0.0324276207555 -0.0110076939702 -0.0327249234749) : omega : 	0.0479126133149 : d : 	(0.669580715876 -0.227292025657 -0.707106781187)
	I207 : dAve : 	(0.0307134055855 -0.0151461754823 -0.0327249234749) : omega : 	0.0479126133149 : d : 	(0.634184797399 -0.312745332096 -0.707106781187)
	I208 : dAve : 	(0.0284736755306 -0.0190255017326 -0.0327249234749) : omega : 	0.0479126133149 : d : 	(0.58793780121 -0.392847479194 -0.707106781187)
	I209 : dAve : 	(0.025746752993 -0.0225792963734 -0.0327249234749) : omega : 	0.0479126133149 : d : 	(0.531631026234 -0.466227897004 -0.707106781187)
	I210 : dAve : 	(0.0225792963734 -0.025746752993 -0.0327249234749) : omega : 	0.0479126133149 : d : 	(0.466227897004 -0.531631026234 -0.707106781187)
	I211 : dAve : 	(0.0190255017326 -0.0284736755306 -0.0327249234749) : omega : 	0.0479126133149 : d : 	(0.392847479194 -0.58793780121 -0.707106781187)
	I212 : dAve : 	(0.0151461754823 -0.0307134055855 -0.0327249234749) : omega : 	0.0479126133149 : d : 	(0.312745332096 -0.634184797399 -0.707106781187)
	I213 : dAve : 	(0.0110076939702 -0.0324276207555 -0.0327249234749) : omega : 	0.0479126133149 : d : 	(0.227292025657 -0.669580715876 -0.707106781187)
	I214 : dAve : 	(0.00668086776241 -0.0335869903436 -0.0327249234749) : omega : 	0.0479126133149 : d : 	(0.137949689641 -0.693519922661 -0.707106781187)
	I215 : dAve : 	(0.00223973005487 -0.034171677215 -0.0327249234749) : omega : 	0.0479126133149 : d : 	(0.0462469961895 -0.70559281129 -0.707106781187)
	I216 : dAve : 	(-0.00223973005487 -0.034171677215 -0.0327249234749) : omega : 	0.0479126133149 : d : 	(-0.0462469961895 -0.70559281129 -0.707106781187)
	I217 : dAve : 	(-0.00668086776241 -0.0335869903436 -0.0327249234749) : omega : 	0.0479126133149 : d : 	(-0.137949689641 -0.693519922661 -0.707106781187)
	I218 : dAve : 	(-0.0110076939702 -0.0324276207555 -0.0327249234749) : omega : 	0.0479126133149 : d : 	(-0.227292025657 -0.669580715876 -0.707106781187)
	I219 : dAve : 	(-0.0151461754823 -0.0307134055855 -0.0327249234749) : omega : 	0.0479126133149 : d : 	(-0.312745332096 -0.634184797399 -0.707106781187)
	I220 : dAve : 	(-0.0190255017326 -0.0284736755306 -0.0327249234749) : omega : 	0.0479126133149 : d : 	(-0.392847479194 -0.58793780121 -0.707106781187)
	I221 : dAve : 	(-0.0225792963734 -0.025746752993 -0.0327249234749) : omega : 	0.0479126133149 : d : 	(-0.466227897004 -0.531631026234 -0.707106781187)
	I222 : dAve : 	(-0.025746752993 -0.0225792963734 -0.0327249234749) : omega : 	0.0479126133149 : d : 	(-0.531631026234 -0.466227897004 -0.707106781187)
	I223 : dAve : 	(-0.0284736755306 -0.0190255017326 -0.0327249234749) : omega : 	0.0479126133149 : d : 	(-0.58793780121 -0.392847479194 -0.707106781187)
	I224 : dAve : 	(-0.0307134055855 -0.0151461754823 -0.0327249234749) : omega : 	0.0479126133149 : d : 	(-0.634184797399 -0.312745332096 -0.707106781187)
	I225 : dAve : 	(-0.0324276207555 -0.0110076939702 -0.0327249234749) : omega : 	0.0479126133149 : d : 	(-0.669580715876 -0.227292025657 -0.707106781187)
	I226 : dAve : 	(-0.0335869903436 -0.00668086776241 -0.0327249234749) : omega : 	0.0479126133149 : d : 	(-0.693519922661 -0.137949689641 -0.707106781187)
	I227 : dAve : 	(-0.034171677215 -0.00223973005487 -0.0327249234749) : omega : 	0.0479126133149 : d : 	(-0.70559281129 -0.0462469961895 -0.707106781187)
	I228 : dAve : 	(-0.034171677215 0.00223973005487 -0.0327249234749) : omega : 	0.0479126133149 : d : 	(-0.70559281129 0.0462469961895 -0.707106781187)
	I229 : dAve : 	(-0.0335869903436 0.00668086776241 -0.0327249234749) : omega : 	0.0479126133149 : d : 	(-0.693519922661 0.137949689641 -0.707106781187)
	I230 : dAve : 	(-0.0324276207555 0.0110076939702 -0.0327249234749) : omega : 	0.0479126133149 : d : 	(-0.669580715876 0.227292025657 -0.707106781187)
	I231 : dAve : 	(-0.0307134055855 0.0151461754823 -0.0327249234749) : omega : 	0.0479126133149 : d : 	(-0.634184797399 0.312745332096 -0.707106781187)
	I232 : dAve : 	(-0.0284736755306 0.0190255017326 -0.0327249234749) : omega : 	0.0479126133149 : d : 	(-0.58793780121 0.392847479194 -0.707106781187)
	I233 : dAve : 	(-0.025746752993 0.0225792963734 -0.0327249234749) : omega : 	0.0479126133149 : d : 	(-0.531631026234 0.466227897004 -0.707106781187)
	I234 : dAve : 	(-0.0225792963734 0.025746752993 -0.0327249234749) : omega : 	0.0479126133149 : d : 	(-0.466227897004 0.531631026234 -0.707106781187)
	I235 : dAve : 	(-0.0190255017326 0.0284736755306 -0.0327249234749) : omega : 	0.0479126133149 : d : 	(-0.392847479194 0.58793780121 -0.707106781187)
	I236 : dAve : 	(-0.0151461754823 0.0307134055855 -0.0327249234749) : omega : 	0.0479126133149 : d : 	(-0.312745332096 0.634184797399 -0.707106781187)
	I237 : dAve : 	(-0.0110076939702 0.0324276207555 -0.0327249234749) : omega : 	0.0479126133149 : d : 	(-0.227292025657 0.669580715876 -0.707106781187)
	I238 : dAve : 	(-0.00668086776241 0.0335869903436 -0.0327249234749) : omega : 	0.0479126133149 : d : 	(-0.137949689641 0.693519922661 -0.707106781187)
	I239 : dAve : 	(-0.00223973005487 0.034171677215 -0.0327249234749) : omega : 	0.0479126133149 : d : 	(-0.0462469961895 0.70559281129 -0.707106781187)
	I240 : dAve : 	(0.000387488209079 0.00591192763451 -0.0163624617374) : omega : 	0.0175372336349 : d : 	(0.0169275754541 0.25826489366 -0.965925826289)
	I241 : dAve : 	(0.00115583459655 0.00581077291359 -0.0163624617374) : omega : 	0.0175372336349 : d : 	(0.050493090853 0.253845909725 -0.965925826289)
	I242 : dAve : 	(0.00190440433361 0.00561019425706 -0.0163624617374) : omega : 	0.0175372336349 : d : 	(0.083194655468 0.245083551895 -0.965925826289)
	I243 : dAve : 	(0.00262038918453 0.00531362362136 -0.0163624617374) : omega : 	0.0175372336349 : d : 	(0.114472736462 0.232127746542 -0.965925826289)
	I244 : dAve : 	(0.00329153844998 0.00492613541228 -0.0163624617374) : omega : 	0.0175372336349 : d : 	(0.143792157198 0.215200171088 -0.965925826289)
	I245 : dAve : 	(0.00390636857998 0.00445435966052 -0.0163624617374) : omega : 	0.0175372336349 : d : 	(0.170651254257 0.194590461042 -0.965925826289)
	I246 : dAve : 	(0.00445435966052 0.00390636857998 -0.0163624617374) : omega : 	0.0175372336349 : d : 	(0.194590461042 0.170651254257 -0.965925826289)
	I247 : dAve : 	(0.00492613541228 0.00329153844998 -0.0163624617374) : omega : 	0.0175372336349 : d : 	(0.215200171088 0.143792157198 -0.965925826289)
	I248 : dAve : 	(0.00531362362136 0.00262038918453 -0.0163624617374) : omega : 	0.0175372336349 : d : 	(0.232127746542 0.114472736462 -0.965925826289)
	I249 : dAve : 	(0.00561019425706 0.00190440433361 -0.0163624617374) : omega : 	0.0175372336349 : d : 	(0.245083551895 0.083194655468 -0.965925826289)
	I250 : dAve : 	(0.00581077291359 0.00115583459655 -0.0163624617374) : omega : 	0.0175372336349 : d : 	(0.253845909725 0.050493090853 -0.965925826289)
	I251 : dAve : 	(0.00591192763451 0.000387488209079 -0.0163624617374) : omega : 	0.0175372336349 : d : 	(0.25826489366 0.0169275754541 -0.965925826289)
	I252 : dAve : 	(0.00591192763451 -0.000387488209079 -0.0163624617374) : omega : 	0.0175372336349 : d : 	(0.25826489366 -0.0169275754541 -0.965925826289)
	I253 : dAve : 	(0.00581077291359 -0.00115583459655 -0.0163624617374) : omega : 	0.0175372336349 : d : 	(0.253845909725 -0.050493090853 -0.965925826289)
	I254 : dAve : 	(0.00561019425706 -0.00190440433361 -0.0163624617374) : omega : 	0.0175372336349 : d : 	(0.245083551895 -0.083194655468 -0.965925826289)
	I255 : dAve : 	(0.00531362362136 -0.00262038918453 -0.0163624617374) : omega : 	0.0175372336349 : d : 	(0.232127746542 -0.114472736462 -0.965925826289)
	I256 : dAve : 	(0.00492613541228 -0.00329153844998 -0.0163624617374) : omega : 	0.0175372336349 : d : 	(0.215200171088 -0.143792157198 -0.965925826289)
	I257 : dAve : 	(0.00445435966052 -0.00390636857998 -0.0163624617374) : omega : 	0.0175372336349 : d : 	(0.194590461042 -0.170651254257 -0.965925826289)
	I258 : dAve : 	(0.00390636857998 -0.00445435966052 -0.0163624617374) : omega : 	0.0175372336349 : d : 	(0.170651254257 -0.194590461042 -0.965925826289)
	I259 : dAve : 	(0.00329153844998 -0.00492613541228 -0.0163624617374) : omega : 	0.0175372336349 : d : 	(0.143792157198 -0.215200171088 -0.965925826289)
	I260 : dAve : 	(0.00262038918453 -0.00531362362136 -0.0163624617374) : omega : 	0.0175372336349 : d : 	(0.114472736462 -0.232127746542 -0.965925826289)
	I261 : dAve : 	(0.00190440433361 -0.00561019425706 -0.0163624617374) : omega : 	0.0175372336349 : d : 	(0.083194655468 -0.245083551895 -0.965925826289)
	I262 : dAve : 	(0.00115583459655 -0.00581077291359 -0.0163624617374) : omega : 	0.0175372336349 : d : 	(0.050493090853 -0.253845909725 -0.965925826289)
	I263 : dAve : 	(0.000387488209079 -0.00591192763451 -0.0163624617374) : omega : 	0.0175372336349 : d : 	(0.0169275754541 -0.25826489366 -0.965925826289)
	I264 : dAve : 	(-0.000387488209079 -0.00591192763451 -0.0163624617374) : omega : 	0.0175372336349 : d : 	(-0.0169275754541 -0.25826489366 -0.965925826289)
	I265 : dAve : 	(-0.00115583459655 -0.00581077291359 -0.0163624617374) : omega : 	0.0175372336349 : d : 	(-0.050493090853 -0.253845909725 -0.965925826289)
	I266 : dAve : 	(-0.00190440433361 -0.00561019425706 -0.0163624617374) : omega : 	0.0175372336349 : d : 	(-0.083194655468 -0.245083551895 -0.965925826289)
	I267 : dAve : 	(-0.00262038918453 -0.00531362362136 -0.0163624617374) : omega : 	0.0175372336349 : d : 	(-0.114472736462 -0.232127746542 -0.965925826289)
	I268 : dAve : 	(-0.00329153844998 -0.00492613541228 -0.0163624617374) : omega : 	0.0175372336349 : d : 	(-0.143792157198 -0.215200171088 -0.965925826289)
	I269 : dAve : 	(-0.00390636857998 -0.00445435966052 -0.0163624617374) : omega : 	0.0175372336349 : d : 	(-0.170651254257 -0.194590461042 -0.965925826289)
	I270 : dAve : 	(-0.00445435966052 -0.00390636857998 -0.0163624617374) : omega : 	0.0175372336349 : d : 	(-0.194590461042 -0.170651254257 -0.965925826289)
	I271 : dAve : 	(-0.00492613541228 -0.00329153844998 -0.0163624617374) : omega : 	0.0175372336349 : d : 	(-0.215200171088 -0.143792157198 -0.965925826289)
	I272 : dAve : 	(-0.00531362362136 -0.00262038918453 -0.0163624617374) : omega : 	0.0175372336349 : d : 	(-0.232127746542 -0.114472736462 -0.965925826289)
	I273 : dAve : 	(-0.00561019425706 -0.00190440433361 -0.0163624617374) : omega : 	0.0175372336349 : d : 	(-0.245083551895 -0.083194655468 -0.965925826289)
	I274 : dAve : 	(-0.00581077291359 -0.00115583459655 -0.0163624617374) : omega : 	0.0175372336349 : d : 	(-0.253845909725 -0.050493090853 -0.965925826289)
	I275 : dAve : 	(-0.00591192763451 -0.000387488209079 -0.0163624617374) : omega : 	0.0175372336349 : d : 	(-0.25826489366 -0.0169275754541 -0.965925826289)
	I276 : dAve : 	(-0.00591192763451 0.000387488209079 -0.0163624617374) : omega : 	0.0175372336349 : d : 	(-0.25826489366 0.0169275754541 -0.965925826289)
	I277 : dAve : 	(-0.00581077291359 0.00115583459655 -0.0163624617374) : omega : 	0.0175372336349 : d : 	(-0.253845909725 0.050493090853 -0.965925826289)
	I278 : dAve : 	(-0.00561019425706 0.00190440433361 -0.0163624617374) : omega : 	0.0175372336349 : d : 	(-0.245083551895 0.083194655468 -0.965925826289)
	I279 : dAve : 	(-0.00531362362136 0.00262038918453 -0.0163624617374) : omega : 	0.0175372336349 : d : 	(-0.232127746542 0.114472736462 -0.965925826289)
	I280 : dAve : 	(-0.00492613541228 0.00329153844998 -0.0163624617374) : omega : 	0.0175372336349 : d : 	(-0.215200171088 0.143792157198 -0.965925826289)
	I281 : dAve : 	(-0.00445435966052 0.00390636857998 -0.0163624617374) : omega : 	0.0175372336349 : d : 	(-0.194590461042 0.170651254257 -0.965925826289)
	I282 : dAve : 	(-0.00390636857998 0.00445435966052 -0.0163624617374) : omega : 	0.0175372336349 : d : 	(-0.170651254257 0.194590461042 -0.965925826289)
	I283 : dAve : 	(-0.00329153844998 0.00492613541228 -0.0163624617374) : omega : 	0.0175372336349 : d : 	(-0.143792157198 0.215200171088 -0.965925826289)
	I284 : dAve : 	(-0.00262038918453 0.00531362362136 -0.0163624617374) : omega : 	0.0175372336349 : d : 	(-0.114472736462 0.232127746542 -0.965925826289)
	I285 : dAve : 	(-0.00190440433361 0.00561019425706 -0.0163624617374) : omega : 	0.0175372336349 : d : 	(-0.083194655468 0.245083551895 -0.965925826289)
	I286 : dAve : 	(-0.00115583459655 0.00581077291359 -0.0163624617374) : omega : 	0.0175372336349 : d : 	(-0.050493090853 0.253845909725 -0.965925826289)
	I287 : dAve : 	(-0.000387488209079 0.00591192763451 -0.0163624617374) : omega : 	0.0175372336349 : d : 	(-0.0169275754541 0.25826489366 -0.965925826289)
Total omega : 12.5663706144

Courant Number mean: 0 max: 0

Starting time loop

Sampled set:
    data -> csv

Sampled set:
    data -> csv

Sampled surface:
    yNormal -> ensight
        sampledCuttingPlane: yNormal : plane:(0 1 0) (0 0 0) offsets:(0)

Sampled surface:
    zNormal -> ensight
        sampledCuttingPlane: zNormal : plane:(0 0 1) (0 0 0) offsets:(0)

Sampled surface:
    patchAll -> ensight
        sampledPatch: patchAll : patches:(".*WW.*")

deltaT = 1
Time = 1

PIMPLE: iteration 1
Radiation solver iter: 0
DILUPBiCGStab:  Solving for ILambda_0_0, Initial residual = 1, Final residual = 4.98086479346e-61, No Iterations 2
DILUPBiCGStab:  Solving for ILambda_1_0, Initial residual = 1, Final residual = 2.07654037458e-61, No Iterations 2
DILUPBiCGStab:  Solving for ILambda_2_0, Initial residual = 1, Final residual = 2.48755834785e-61, No Iterations 2
DILUPBiCGStab:  Solving for ILambda_3_0, Initial residual = 1, Final residual = 6.29838045379e-75, No Iterations 3
DILUPBiCGStab:  Solving for ILambda_4_0, Initial residual = 1, Final residual = 2.41976155506e-61, No Iterations 2
DILUPBiCGStab:  Solving for ILambda_5_0, Initial residual = 1, Final residual = 1.41173848919e-61, No Iterations 2
DILUPBiCGStab:  Solving for ILambda_6_0, Initial residual = 1, Final residual = 1.38739635289e-61, No Iterations 2
DILUPBiCGStab:  Solving for ILambda_7_0, Initial residual = 1, Final residual = 7.22177215884e-75, No Iterations 3
DILUPBiCGStab:  Solving for ILambda_8_0, Initial residual = 1, Final residual = 2.51319950344e-61, No Iterations 2
DILUPBiCGStab:  Solving for ILambda_9_0, Initial residual = 1, Final residual = 2.72022020813e-61, No Iterations 2
DILUPBiCGStab:  Solving for ILambda_10_0, Initial residual = 1, Final residual = 1.38821398146e-61, No Iterations 2
DILUPBiCGStab:  Solving for ILambda_11_0, Initial residual = 1, Final residual = 3.79118428205e-61, No Iterations 2
DILUPBiCGStab:  Solving for ILambda_12_0, Initial residual = 1, Final residual = 5.07080727412e-62, No Iterations 33
DILUPBiCGStab:  Solving for ILambda_13_0, Initial residual = 1, Final residual = 5.49250405703e-61, No Iterations 46
DILUPBiCGStab:  Solving for ILambda_14_0, Initial residual = 1, Final residual = 2.0081008855e-61, No Iterations 52
DILUPBiCGStab:  Solving for ILambda_15_0, Initial residual = 1, Final residual = 2.44737105136e-61, No Iterations 56
DILUPBiCGStab:  Solving for ILambda_16_0, Initial residual = 1, Final residual = 5.82034655742e-61, No Iterations 57
DILUPBiCGStab:  Solving for ILambda_17_0, Initial residual = 1, Final residual = 2.25983306587e-61, No Iterations 55
DILUPBiCGStab:  Solving for ILambda_18_0, Initial residual = 1, Final residual = 3.54947669512e-61, No Iterations 55
DILUPBiCGStab:  Solving for ILambda_19_0, Initial residual = 1, Final residual = 1.38509556459e-61, No Iterations 58
DILUPBiCGStab:  Solving for ILambda_20_0, Initial residual = 1, Final residual = 1.49952949521e-61, No Iterations 55
DILUPBiCGStab:  Solving for ILambda_21_0, Initial residual = 1, Final residual = 4.47766856038e-61, No Iterations 51
DILUPBiCGStab:  Solving for ILambda_22_0, Initial residual = 1, Final residual = 6.29452094671e-62, No Iterations 44
DILUPBiCGStab:  Solving for ILambda_23_0, Initial residual = 1, Final residual = 7.32383362677e-63, No Iterations 32
DILUPBiCGStab:  Solving for ILambda_24_0, Initial residual = 1, Final residual = 7.32398966279e-61, No Iterations 20
DILUPBiCGStab:  Solving for ILambda_25_0, Initial residual = 1, Final residual = 4.12396779029e-61, No Iterations 22
DILUPBiCGStab:  Solving for ILambda_26_0, Initial residual = 1, Final residual = 3.7021164374e-61, No Iterations 20
DILUPBiCGStab:  Solving for ILambda_27_0, Initial residual = 1, Final residual = 1.73247085644e-61, No Iterations 23
DILUPBiCGStab:  Solving for ILambda_28_0, Initial residual = 1, Final residual = 6.13778574157e-61, No Iterations 23
DILUPBiCGStab:  Solving for ILambda_29_0, Initial residual = 1, Final residual = 1.27797509861e-61, No Iterations 22
DILUPBiCGStab:  Solving for ILambda_30_0, Initial residual = 1, Final residual = 8.8723577348e-61, No Iterations 22
DILUPBiCGStab:  Solving for ILambda_31_0, Initial residual = 1, Final residual = 8.05966447066e-61, No Iterations 21
DILUPBiCGStab:  Solving for ILambda_32_0, Initial residual = 1, Final residual = 1.46117535508e-61, No Iterations 22
DILUPBiCGStab:  Solving for ILambda_33_0, Initial residual = 1, Final residual = 3.89252032317e-61, No Iterations 20
DILUPBiCGStab:  Solving for ILambda_34_0, Initial residual = 1, Final residual = 4.99047899112e-61, No Iterations 21
DILUPBiCGStab:  Solving for ILambda_35_0, Initial residual = 1, Final residual = 4.53482367756e-61, No Iterations 19
DILUPBiCGStab:  Solving for ILambda_36_0, Initial residual = 1, Final residual = 2.59470652978e-61, No Iterations 31
DILUPBiCGStab:  Solving for ILambda_37_0, Initial residual = 1, Final residual = 2.40802675532e-61, No Iterations 44
DILUPBiCGStab:  Solving for ILambda_38_0, Initial residual = 1, Final residual = 1.70915106648e-61, No Iterations 51
DILUPBiCGStab:  Solving for ILambda_39_0, Initial residual = 1, Final residual = 8.72542534557e-61, No Iterations 55
DILUPBiCGStab:  Solving for ILambda_40_0, Initial residual = 1, Final residual = 2.11366664759e-61, No Iterations 58
DILUPBiCGStab:  Solving for ILambda_41_0, Initial residual = 1, Final residual = 7.34477884572e-61, No Iterations 55
DILUPBiCGStab:  Solving for ILambda_42_0, Initial residual = 1, Final residual = 6.45276770027e-62, No Iterations 56
DILUPBiCGStab:  Solving for ILambda_43_0, Initial residual = 1, Final residual = 8.03237441052e-61, No Iterations 57
DILUPBiCGStab:  Solving for ILambda_44_0, Initial residual = 1, Final residual = 5.039051387e-61, No Iterations 55
DILUPBiCGStab:  Solving for ILambda_45_0, Initial residual = 1, Final residual = 1.46985500481e-61, No Iterations 52
DILUPBiCGStab:  Solving for ILambda_46_0, Initial residual = 1, Final residual = 2.31593332013e-61, No Iterations 47
DILUPBiCGStab:  Solving for ILambda_47_0, Initial residual = 1, Final residual = 1.28477599752e-61, No Iterations 32
DILUPBiCGStab:  Solving for ILambda_48_0, Initial residual = 1, Final residual = 3.229233069e-75, No Iterations 3
DILUPBiCGStab:  Solving for ILambda_49_0, Initial residual = 1, Final residual = 2.26013912698e-75, No Iterations 3
DILUPBiCGStab:  Solving for ILambda_50_0, Initial residual = 1, Final residual = 5.47013543185e-75, No Iterations 3
DILUPBiCGStab:  Solving for ILambda_51_0, Initial residual = 1, Final residual = 4.76892224125e-75, No Iterations 3
DILUPBiCGStab:  Solving for ILambda_52_0, Initial residual = 1, Final residual = 7.98987973508e-76, No Iterations 3
DILUPBiCGStab:  Solving for ILambda_53_0, Initial residual = 1, Final residual = 3.62403745391e-75, No Iterations 3
DILUPBiCGStab:  Solving for ILambda_54_0, Initial residual = 1, Final residual = 2.55030070094e-74, No Iterations 3
DILUPBiCGStab:  Solving for ILambda_55_0, Initial residual = 1, Final residual = 2.53728511005e-75, No Iterations 3
DILUPBiCGStab:  Solving for ILambda_56_0, Initial residual = 1, Final residual = 6.064661181e-75, No Iterations 3
DILUPBiCGStab:  Solving for ILambda_57_0, Initial residual = 1, Final residual = 2.73138752053e-75, No Iterations 3
DILUPBiCGStab:  Solving for ILambda_58_0, Initial residual = 1, Final residual = 2.58800433708e-75, No Iterations 3
DILUPBiCGStab:  Solving for ILambda_59_0, Initial residual = 1, Final residual = 1.89433733936e-75, No Iterations 3
DILUPBiCGStab:  Solving for ILambda_60_0, Initial residual = 1, Final residual = 3.20576219389e-61, No Iterations 34
DILUPBiCGStab:  Solving for ILambda_61_0, Initial residual = 1, Final residual = 4.45782747292e-61, No Iterations 48
DILUPBiCGStab:  Solving for ILambda_62_0, Initial residual = 1, Final residual = 9.72101392023e-62, No Iterations 55
DILUPBiCGStab:  Solving for ILambda_63_0, Initial residual = 1, Final residual = 5.61289335771e-61, No Iterations 59
DILUPBiCGStab:  Solving for ILambda_64_0, Initial residual = 1, Final residual = 5.00168236921e-61, No Iterations 62
DILUPBiCGStab:  Solving for ILambda_65_0, Initial residual = 1, Final residual = 1.78259660735e-61, No Iterations 60
DILUPBiCGStab:  Solving for ILambda_66_0, Initial residual = 1, Final residual = 8.56359765275e-61, No Iterations 60
DILUPBiCGStab:  Solving for ILambda_67_0, Initial residual = 1, Final residual = 9.80867335239e-61, No Iterations 61
DILUPBiCGStab:  Solving for ILambda_68_0, Initial residual = 1, Final residual = 5.58443438317e-61, No Iterations 59
DILUPBiCGStab:  Solving for ILambda_69_0, Initial residual = 1, Final residual = 6.30434338264e-61, No Iterations 53
DILUPBiCGStab:  Solving for ILambda_70_0, Initial residual = 1, Final residual = 2.49916235871e-61, No Iterations 45
DILUPBiCGStab:  Solving for ILambda_71_0, Initial residual = 1, Final residual = 4.58405664113e-61, No Iterations 33
DILUPBiCGStab:  Solving for ILambda_72_0, Initial residual = 1, Final residual = 7.02162895179e-61, No Iterations 26
DILUPBiCGStab:  Solving for ILambda_73_0, Initial residual = 1, Final residual = 7.01660888597e-61, No Iterations 25
DILUPBiCGStab:  Solving for ILambda_74_0, Initial residual = 1, Final residual = 3.56907989841e-61, No Iterations 26
DILUPBiCGStab:  Solving for ILambda_75_0, Initial residual = 1, Final residual = 6.28741603443e-61, No Iterations 26
DILUPBiCGStab:  Solving for ILambda_76_0, Initial residual = 1, Final residual = 4.66623151037e-61, No Iterations 26
DILUPBiCGStab:  Solving for ILambda_77_0, Initial residual = 1, Final residual = 1.69760714411e-61, No Iterations 34
DILUPBiCGStab:  Solving for ILambda_78_0, Initial residual = 1, Final residual = 4.02442337741e-61, No Iterations 27
DILUPBiCGStab:  Solving for ILambda_79_0, Initial residual = 1, Final residual = 1.02953626606e-61, No Iterations 30
DILUPBiCGStab:  Solving for ILambda_80_0, Initial residual = 1, Final residual = 4.61312432734e-61, No Iterations 27
DILUPBiCGStab:  Solving for ILambda_81_0, Initial residual = 1, Final residual = 4.96642306295e-62, No Iterations 26
DILUPBiCGStab:  Solving for ILambda_82_0, Initial residual = 1, Final residual = 7.35889048181e-61, No Iterations 25
DILUPBiCGStab:  Solving for ILambda_83_0, Initial residual = 1, Final residual = 5.62601752303e-62, No Iterations 24
DILUPBiCGStab:  Solving for ILambda_84_0, Initial residual = 1, Final residual = 2.1619074701e-61, No Iterations 33
DILUPBiCGStab:  Solving for ILambda_85_0, Initial residual = 1, Final residual = 1.90606657231e-61, No Iterations 45
DILUPBiCGStab:  Solving for ILambda_86_0, Initial residual = 1, Final residual = 3.58728026162e-61, No Iterations 53
DILUPBiCGStab:  Solving for ILambda_87_0, Initial residual = 1, Final residual = 4.59783889277e-61, No Iterations 59
DILUPBiCGStab:  Solving for ILambda_88_0, Initial residual = 1, Final residual = 2.83319775884e-61, No Iterations 63
DILUPBiCGStab:  Solving for ILambda_89_0, Initial residual = 1, Final residual = 5.58179266753e-61, No Iterations 60
DILUPBiCGStab:  Solving for ILambda_90_0, Initial residual = 1, Final residual = 1.22465998187e-61, No Iterations 61
DILUPBiCGStab:  Solving for ILambda_91_0, Initial residual = 1, Final residual = 3.86545199032e-61, No Iterations 61
DILUPBiCGStab:  Solving for ILambda_92_0, Initial residual = 1, Final residual = 3.02574273333e-61, No Iterations 60
DILUPBiCGStab:  Solving for ILambda_93_0, Initial residual = 1, Final residual = 6.48498682472e-61, No Iterations 54
DILUPBiCGStab:  Solving for ILambda_94_0, Initial residual = 1, Final residual = 1.48360662221e-61, No Iterations 47
DILUPBiCGStab:  Solving for ILambda_95_0, Initial residual = 1, Final residual = 4.62228905746e-61, No Iterations 34
DILUPBiCGStab:  Solving for ILambda_96_0, Initial residual = 1, Final residual = 5.85409561916e-75, No Iterations 3
DILUPBiCGStab:  Solving for ILambda_97_0, Initial residual = 1, Final residual = 9.90727262563e-75, No Iterations 3
DILUPBiCGStab:  Solving for ILambda_98_0, Initial residual = 1, Final residual = 1.07418788918e-74, No Iterations 3
DILUPBiCGStab:  Solving for ILambda_99_0, Initial residual = 1, Final residual = 4.63740802916e-74, No Iterations 3
DILUPBiCGStab:  Solving for ILambda_100_0, Initial residual = 1, Final residual = 1.12750815168e-72, No Iterations 3
DILUPBiCGStab:  Solving for ILambda_101_0, Initial residual = 1, Final residual = 2.71357153323e-74, No Iterations 3
DILUPBiCGStab:  Solving for ILambda_102_0, Initial residual = 1, Final residual = 5.57952051044e-74, No Iterations 3
DILUPBiCGStab:  Solving for ILambda_103_0, Initial residual = 1, Final residual = 5.01770307198e-73, No Iterations 3
DILUPBiCGStab:  Solving for ILambda_104_0, Initial residual = 1, Final residual = 6.91325004612e-75, No Iterations 3
DILUPBiCGStab:  Solving for ILambda_105_0, Initial residual = 1, Final residual = 4.8615678793e-75, No Iterations 3
DILUPBiCGStab:  Solving for ILambda_106_0, Initial residual = 1, Final residual = 2.00552236104e-74, No Iterations 3
DILUPBiCGStab:  Solving for ILambda_107_0, Initial residual = 1, Final residual = 2.70174877014e-75, No Iterations 3
DILUPBiCGStab:  Solving for ILambda_108_0, Initial residual = 1, Final residual = 1.47529220166e-61, No Iterations 34
DILUPBiCGStab:  Solving for ILambda_109_0, Initial residual = 1, Final residual = 5.24904340118e-61, No Iterations 48
DILUPBiCGStab:  Solving for ILambda_110_0, Initial residual = 1, Final residual = 9.84408243773e-61, No Iterations 54
DILUPBiCGStab:  Solving for ILambda_111_0, Initial residual = 1, Final residual = 6.78218546753e-61, No Iterations 59
DILUPBiCGStab:  Solving for ILambda_112_0, Initial residual = 1, Final residual = 3.94801269215e-61, No Iterations 64
DILUPBiCGStab:  Solving for ILambda_113_0, Initial residual = 1, Final residual = 9.14870533689e-62, No Iterations 63
DILUPBiCGStab:  Solving for ILambda_114_0, Initial residual = 1, Final residual = 3.33905705266e-61, No Iterations 64
DILUPBiCGStab:  Solving for ILambda_115_0, Initial residual = 1, Final residual = 5.97702986095e-61, No Iterations 65
DILUPBiCGStab:  Solving for ILambda_116_0, Initial residual = 1, Final residual = 1.06517175464e-61, No Iterations 59
DILUPBiCGStab:  Solving for ILambda_117_0, Initial residual = 1, Final residual = 6.64936960115e-61, No Iterations 52
DILUPBiCGStab:  Solving for ILambda_118_0, Initial residual = 1, Final residual = 3.2026256847e-61, No Iterations 46
DILUPBiCGStab:  Solving for ILambda_119_0, Initial residual = 1, Final residual = 7.75637725403e-61, No Iterations 33
DILUPBiCGStab:  Solving for ILambda_120_0, Initial residual = 1, Final residual = 4.76571191394e-62, No Iterations 32
DILUPBiCGStab:  Solving for ILambda_121_0, Initial residual = 1, Final residual = 8.68871884314e-61, No Iterations 31
DILUPBiCGStab:  Solving for ILambda_122_0, Initial residual = 1, Final residual = 9.90261241814e-61, No Iterations 32
DILUPBiCGStab:  Solving for ILambda_123_0, Initial residual = 1, Final residual = 4.99512511417e-61, No Iterations 28
DILUPBiCGStab:  Solving for ILambda_124_0, Initial residual = 1, Final residual = 1.78209582548e-61, No Iterations 36
DILUPBiCGStab:  Solving for ILambda_125_0, Initial residual = 1, Final residual = 6.49598392534e-61, No Iterations 33
DILUPBiCGStab:  Solving for ILambda_126_0, Initial residual = 1, Final residual = 9.95960053614e-61, No Iterations 30
DILUPBiCGStab:  Solving for ILambda_127_0, Initial residual = 1, Final residual = 4.51038225503e-61, No Iterations 30
DILUPBiCGStab:  Solving for ILambda_128_0, Initial residual = 1, Final residual = 2.42955185473e-63, No Iterations 33
DILUPBiCGStab:  Solving for ILambda_129_0, Initial residual = 1, Final residual = 9.65449255835e-62, No Iterations 30
DILUPBiCGStab:  Solving for ILambda_130_0, Initial residual = 1, Final residual = 2.63928956421e-61, No Iterations 29
DILUPBiCGStab:  Solving for ILambda_131_0, Initial residual = 1, Final residual = 4.92101200035e-63, No Iterations 37
DILUPBiCGStab:  Solving for ILambda_132_0, Initial residual = 1, Final residual = 8.72366696292e-61, No Iterations 33
DILUPBiCGStab:  Solving for ILambda_133_0, Initial residual = 1, Final residual = 1.23664775655e-61, No Iterations 46
DILUPBiCGStab:  Solving for ILambda_134_0, Initial residual = 1, Final residual = 2.44229146559e-61, No Iterations 53
DILUPBiCGStab:  Solving for ILambda_135_0, Initial residual = 1, Final residual = 1.55796928768e-61, No Iterations 60
DILUPBiCGStab:  Solving for ILambda_136_0, Initial residual = 1, Final residual = 9.9579497093e-61, No Iterations 63
DILUPBiCGStab:  Solving for ILambda_137_0, Initial residual = 1, Final residual = 5.87329685052e-61, No Iterations 61
DILUPBiCGStab:  Solving for ILambda_138_0, Initial residual = 1, Final residual = 9.38185609741e-61, No Iterations 62
DILUPBiCGStab:  Solving for ILambda_139_0, Initial residual = 1, Final residual = 1.12433098255e-61, No Iterations 64
DILUPBiCGStab:  Solving for ILambda_140_0, Initial residual = 1, Final residual = 4.02805028548e-61, No Iterations 60
DILUPBiCGStab:  Solving for ILambda_141_0, Initial residual = 1, Final residual = 6.61192512829e-61, No Iterations 54
DILUPBiCGStab:  Solving for ILambda_142_0, Initial residual = 1, Final residual = 3.63410395295e-61, No Iterations 48
DILUPBiCGStab:  Solving for ILambda_143_0, Initial residual = 1, Final residual = 1.41582851435e-61, No Iterations 34
DILUPBiCGStab:  Solving for ILambda_144_0, Initial residual = 1, Final residual = 3.75380561654e-61, No Iterations 24
DILUPBiCGStab:  Solving for ILambda_145_0, Initial residual = 1, Final residual = 2.09418388298e-61, No Iterations 29
DILUPBiCGStab:  Solving for ILambda_146_0, Initial residual = 1, Final residual = 5.36761959546e-62, No Iterations 29
DILUPBiCGStab:  Solving for ILambda_147_0, Initial residual = 1, Final residual = 1.08753378661e-61, No Iterations 30
DILUPBiCGStab:  Solving for ILambda_148_0, Initial residual = 1, Final residual = 9.7461762494e-61, No Iterations 28
DILUPBiCGStab:  Solving for ILambda_149_0, Initial residual = 1, Final residual = 3.98545592463e-62, No Iterations 29
DILUPBiCGStab:  Solving for ILambda_150_0, Initial residual = 1, Final residual = 7.06417909404e-61, No Iterations 26
DILUPBiCGStab:  Solving for ILambda_151_0, Initial residual = 1, Final residual = 1.16894682912e-61, No Iterations 31
DILUPBiCGStab:  Solving for ILambda_152_0, Initial residual = 1, Final residual = 2.0093922953e-61, No Iterations 28
DILUPBiCGStab:  Solving for ILambda_153_0, Initial residual = 1, Final residual = 1.53564115751e-62, No Iterations 28
DILUPBiCGStab:  Solving for ILambda_154_0, Initial residual = 1, Final residual = 5.96506057263e-62, No Iterations 26
DILUPBiCGStab:  Solving for ILambda_155_0, Initial residual = 1, Final residual = 1.48872430922e-61, No Iterations 24
DILUPBiCGStab:  Solving for ILambda_156_0, Initial residual = 1, Final residual = 9.96445466879e-62, No Iterations 34
DILUPBiCGStab:  Solving for ILambda_157_0, Initial residual = 1, Final residual = 5.54570164652e-61, No Iterations 46
DILUPBiCGStab:  Solving for ILambda_158_0, Initial residual = 1, Final residual = 3.26129877053e-61, No Iterations 53
DILUPBiCGStab:  Solving for ILambda_159_0, Initial residual = 1, Final residual = 2.73586038744e-61, No Iterations 59
DILUPBiCGStab:  Solving for ILambda_160_0, Initial residual = 1, Final residual = 3.00284300641e-62, No Iterations 65
DILUPBiCGStab:  Solving for ILambda_161_0, Initial residual = 1, Final residual = 2.12400254968e-61, No Iterations 65
DILUPBiCGStab:  Solving for ILambda_162_0, Initial residual = 1, Final residual = 1.57307912744e-61, No Iterations 64
DILUPBiCGStab:  Solving for ILambda_163_0, Initial residual = 1, Final residual = 3.18649202703e-61, No Iterations 64
DILUPBiCGStab:  Solving for ILambda_164_0, Initial residual = 1, Final residual = 9.13555237802e-61, No Iterations 60
DILUPBiCGStab:  Solving for ILambda_165_0, Initial residual = 1, Final residual = 4.17926377014e-61, No Iterations 56
DILUPBiCGStab:  Solving for ILambda_166_0, Initial residual = 1, Final residual = 7.67615410567e-61, No Iterations 49
DILUPBiCGStab:  Solving for ILambda_167_0, Initial residual = 1, Final residual = 3.94287960436e-61, No Iterations 34
DILUPBiCGStab:  Solving for ILambda_168_0, Initial residual = 1, Final residual = 6.6993276606e-74, No Iterations 3
DILUPBiCGStab:  Solving for ILambda_169_0, Initial residual = 1, Final residual = 2.02812796302e-75, No Iterations 3
DILUPBiCGStab:  Solving for ILambda_170_0, Initial residual = 1, Final residual = 6.42347145053e-74, No Iterations 3
DILUPBiCGStab:  Solving for ILambda_171_0, Initial residual = 1, Final residual = 2.24721199374e-74, No Iterations 3
DILUPBiCGStab:  Solving for ILambda_172_0, Initial residual = 1, Final residual = 9.98063057998e-74, No Iterations 3
DILUPBiCGStab:  Solving for ILambda_173_0, Initial residual = 1, Final residual = 1.56718033081e-74, No Iterations 3
DILUPBiCGStab:  Solving for ILambda_174_0, Initial residual = 1, Final residual = 1.06184466053e-74, No Iterations 3
DILUPBiCGStab:  Solving for ILambda_175_0, Initial residual = 1, Final residual = 1.28384961059e-74, No Iterations 3
DILUPBiCGStab:  Solving for ILambda_176_0, Initial residual = 1, Final residual = 1.2585672022e-74, No Iterations 3
DILUPBiCGStab:  Solving for ILambda_177_0, Initial residual = 1, Final residual = 4.8277566964e-74, No Iterations 3
DILUPBiCGStab:  Solving for ILambda_178_0, Initial residual = 1, Final residual = 2.79201935361e-75, No Iterations 3
DILUPBiCGStab:  Solving for ILambda_179_0, Initial residual = 1, Final residual = 1.17160608374e-74, No Iterations 3
DILUPBiCGStab:  Solving for ILambda_180_0, Initial residual = 1, Final residual = 4.09908851075e-61, No Iterations 35
DILUPBiCGStab:  Solving for ILambda_181_0, Initial residual = 1, Final residual = 5.73857748731e-61, No Iterations 49
DILUPBiCGStab:  Solving for ILambda_182_0, Initial residual = 1, Final residual = 1.50124073345e-61, No Iterations 56
DILUPBiCGStab:  Solving for ILambda_183_0, Initial residual = 1, Final residual = 3.32002740833e-61, No Iterations 61
DILUPBiCGStab:  Solving for ILambda_184_0, Initial residual = 1, Final residual = 6.59379867035e-62, No Iterations 64
DILUPBiCGStab:  Solving for ILambda_185_0, Initial residual = 1, Final residual = 4.73772471097e-61, No Iterations 64
DILUPBiCGStab:  Solving for ILambda_186_0, Initial residual = 1, Final residual = 4.00531037316e-61, No Iterations 66
DILUPBiCGStab:  Solving for ILambda_187_0, Initial residual = 1, Final residual = 5.89822240776e-61, No Iterations 64
DILUPBiCGStab:  Solving for ILambda_188_0, Initial residual = 1, Final residual = 1.43254379795e-61, No Iterations 61
DILUPBiCGStab:  Solving for ILambda_189_0, Initial residual = 1, Final residual = 1.68334638049e-61, No Iterations 53
DILUPBiCGStab:  Solving for ILambda_190_0, Initial residual = 1, Final residual = 2.55449752724e-61, No Iterations 46
DILUPBiCGStab:  Solving for ILambda_191_0, Initial residual = 1, Final residual = 7.61247034132e-62, No Iterations 34
DILUPBiCGStab:  Solving for ILambda_192_0, Initial residual = 1, Final residual = 2.51450930423e-61, No Iterations 27
DILUPBiCGStab:  Solving for ILambda_193_0, Initial residual = 1, Final residual = 4.13454549045e-63, No Iterations 25
DILUPBiCGStab:  Solving for ILambda_194_0, Initial residual = 1, Final residual = 8.5194652607e-63, No Iterations 25
DILUPBiCGStab:  Solving for ILambda_195_0, Initial residual = 1, Final residual = 1.78118498863e-61, No Iterations 29
DILUPBiCGStab:  Solving for ILambda_196_0, Initial residual = 1, Final residual = 4.53349349886e-61, No Iterations 26
DILUPBiCGStab:  Solving for ILambda_197_0, Initial residual = 1, Final residual = 7.71003199413e-62, No Iterations 25
DILUPBiCGStab:  Solving for ILambda_198_0, Initial residual = 1, Final residual = 1.44505767478e-62, No Iterations 23
DILUPBiCGStab:  Solving for ILambda_199_0, Initial residual = 1, Final residual = 1.50160044613e-61, No Iterations 23
DILUPBiCGStab:  Solving for ILambda_200_0, Initial residual = 1, Final residual = 2.2285024108e-61, No Iterations 26
DILUPBiCGStab:  Solving for ILambda_201_0, Initial residual = 1, Final residual = 1.36915011553e-62, No Iterations 24
DILUPBiCGStab:  Solving for ILambda_202_0, Initial residual = 1, Final residual = 8.37946013843e-62, No Iterations 25
DILUPBiCGStab:  Solving for ILambda_203_0, Initial residual = 1, Final residual = 2.4755775992e-61, No Iterations 31
DILUPBiCGStab:  Solving for ILambda_204_0, Initial residual = 1, Final residual = 4.20859059957e-61, No Iterations 33
DILUPBiCGStab:  Solving for ILambda_205_0, Initial residual = 1, Final residual = 3.95504386847e-61, No Iterations 46
DILUPBiCGStab:  Solving for ILambda_206_0, Initial residual = 1, Final residual = 9.69618790234e-61, No Iterations 54
DILUPBiCGStab:  Solving for ILambda_207_0, Initial residual = 1, Final residual = 3.81630288378e-61, No Iterations 59
DILUPBiCGStab:  Solving for ILambda_208_0, Initial residual = 1, Final residual = 2.49953943398e-61, No Iterations 63
DILUPBiCGStab:  Solving for ILambda_209_0, Initial residual = 1, Final residual = 4.35834550313e-61, No Iterations 63
DILUPBiCGStab:  Solving for ILambda_210_0, Initial residual = 1, Final residual = 6.1381824402e-61, No Iterations 63
DILUPBiCGStab:  Solving for ILambda_211_0, Initial residual = 1, Final residual = 8.27211249072e-61, No Iterations 63
DILUPBiCGStab:  Solving for ILambda_212_0, Initial residual = 1, Final residual = 1.30266018091e-61, No Iterations 60
DILUPBiCGStab:  Solving for ILambda_213_0, Initial residual = 1, Final residual = 1.5371215413e-61, No Iterations 56
DILUPBiCGStab:  Solving for ILambda_214_0, Initial residual = 1, Final residual = 6.77398616286e-61, No Iterations 48
DILUPBiCGStab:  Solving for ILambda_215_0, Initial residual = 1, Final residual = 4.0281370579e-61, No Iterations 34
DILUPBiCGStab:  Solving for ILambda_216_0, Initial residual = 1, Final residual = 6.20402248619e-74, No Iterations 3
DILUPBiCGStab:  Solving for ILambda_217_0, Initial residual = 1, Final residual = 1.41923091804e-74, No Iterations 3
DILUPBiCGStab:  Solving for ILambda_218_0, Initial residual = 1, Final residual = 2.9500865814e-74, No Iterations 3
DILUPBiCGStab:  Solving for ILambda_219_0, Initial residual = 1, Final residual = 8.56965901446e-75, No Iterations 3
DILUPBiCGStab:  Solving for ILambda_220_0, Initial residual = 1, Final residual = 1.39647112081e-71, No Iterations 3
DILUPBiCGStab:  Solving for ILambda_221_0, Initial residual = 1, Final residual = 6.05692953261e-75, No Iterations 3
DILUPBiCGStab:  Solving for ILambda_222_0, Initial residual = 1, Final residual = 2.61031305537e-75, No Iterations 3
DILUPBiCGStab:  Solving for ILambda_223_0, Initial residual = 1, Final residual = 2.66437494084e-75, No Iterations 3
DILUPBiCGStab:  Solving for ILambda_224_0, Initial residual = 1, Final residual = 6.30511380045e-73, No Iterations 3
DILUPBiCGStab:  Solving for ILambda_225_0, Initial residual = 1, Final residual = 9.70453784321e-75, No Iterations 3
DILUPBiCGStab:  Solving for ILambda_226_0, Initial residual = 1, Final residual = 2.00204793151e-75, No Iterations 3
DILUPBiCGStab:  Solving for ILambda_227_0, Initial residual = 1, Final residual = 8.98649529001e-75, No Iterations 3
DILUPBiCGStab:  Solving for ILambda_228_0, Initial residual = 1, Final residual = 2.76066632253e-61, No Iterations 34
DILUPBiCGStab:  Solving for ILambda_229_0, Initial residual = 1, Final residual = 4.72868530615e-61, No Iterations 48
DILUPBiCGStab:  Solving for ILambda_230_0, Initial residual = 1, Final residual = 1.80764714317e-61, No Iterations 56
DILUPBiCGStab:  Solving for ILambda_231_0, Initial residual = 1, Final residual = 3.50719456619e-61, No Iterations 60
DILUPBiCGStab:  Solving for ILambda_232_0, Initial residual = 1, Final residual = 5.24572321948e-61, No Iterations 63
DILUPBiCGStab:  Solving for ILambda_233_0, Initial residual = 1, Final residual = 8.44329544133e-61, No Iterations 62
DILUPBiCGStab:  Solving for ILambda_234_0, Initial residual = 1, Final residual = 4.94275034642e-61, No Iterations 62
DILUPBiCGStab:  Solving for ILambda_235_0, Initial residual = 1, Final residual = 5.26664398235e-61, No Iterations 64
DILUPBiCGStab:  Solving for ILambda_236_0, Initial residual = 1, Final residual = 3.69207024862e-61, No Iterations 59
DILUPBiCGStab:  Solving for ILambda_237_0, Initial residual = 1, Final residual = 2.00883428925e-61, No Iterations 54
DILUPBiCGStab:  Solving for ILambda_238_0, Initial residual = 1, Final residual = 9.05919886859e-61, No Iterations 46
DILUPBiCGStab:  Solving for ILambda_239_0, Initial residual = 1, Final residual = 1.157369651e-61, No Iterations 33
DILUPBiCGStab:  Solving for ILambda_240_0, Initial residual = 1, Final residual = 4.57485008261e-62, No Iterations 25
DILUPBiCGStab:  Solving for ILambda_241_0, Initial residual = 1, Final residual = 3.04707459074e-61, No Iterations 26
DILUPBiCGStab:  Solving for ILambda_242_0, Initial residual = 1, Final residual = 6.21887015922e-61, No Iterations 24
DILUPBiCGStab:  Solving for ILambda_243_0, Initial residual = 1, Final residual = 7.89149026974e-61, No Iterations 25
DILUPBiCGStab:  Solving for ILambda_244_0, Initial residual = 1, Final residual = 2.73571208004e-61, No Iterations 26
DILUPBiCGStab:  Solving for ILambda_245_0, Initial residual = 1, Final residual = 1.04458488681e-61, No Iterations 26
DILUPBiCGStab:  Solving for ILambda_246_0, Initial residual = 1, Final residual = 6.25453176217e-61, No Iterations 27
DILUPBiCGStab:  Solving for ILambda_247_0, Initial residual = 1, Final residual = 8.89458981922e-62, No Iterations 25
DILUPBiCGStab:  Solving for ILambda_248_0, Initial residual = 1, Final residual = 1.83386664098e-61, No Iterations 27
DILUPBiCGStab:  Solving for ILambda_249_0, Initial residual = 1, Final residual = 2.74096921837e-61, No Iterations 27
DILUPBiCGStab:  Solving for ILambda_250_0, Initial residual = 1, Final residual = 5.54787798551e-64, No Iterations 25
DILUPBiCGStab:  Solving for ILambda_251_0, Initial residual = 1, Final residual = 2.77634863352e-61, No Iterations 27
DILUPBiCGStab:  Solving for ILambda_252_0, Initial residual = 1, Final residual = 7.33955049006e-62, No Iterations 32
DILUPBiCGStab:  Solving for ILambda_253_0, Initial residual = 1, Final residual = 9.26505622872e-62, No Iterations 45
DILUPBiCGStab:  Solving for ILambda_254_0, Initial residual = 1, Final residual = 2.74771185969e-61, No Iterations 53
DILUPBiCGStab:  Solving for ILambda_255_0, Initial residual = 1, Final residual = 7.46160231053e-61, No Iterations 56
DILUPBiCGStab:  Solving for ILambda_256_0, Initial residual = 1, Final residual = 5.59103746101e-61, No Iterations 57
DILUPBiCGStab:  Solving for ILambda_257_0, Initial residual = 1, Final residual = 6.00728763966e-61, No Iterations 55
DILUPBiCGStab:  Solving for ILambda_258_0, Initial residual = 1, Final residual = 8.94693374068e-61, No Iterations 56
DILUPBiCGStab:  Solving for ILambda_259_0, Initial residual = 1, Final residual = 5.09652006186e-61, No Iterations 57
DILUPBiCGStab:  Solving for ILambda_260_0, Initial residual = 1, Final residual = 4.406340931e-61, No Iterations 57
DILUPBiCGStab:  Solving for ILambda_261_0, Initial residual = 1, Final residual = 6.20522392886e-61, No Iterations 53
DILUPBiCGStab:  Solving for ILambda_262_0, Initial residual = 1, Final residual = 3.05844535909e-61, No Iterations 45
DILUPBiCGStab:  Solving for ILambda_263_0, Initial residual = 1, Final residual = 4.27463860151e-62, No Iterations 32
DILUPBiCGStab:  Solving for ILambda_264_0, Initial residual = 1, Final residual = 4.13938314096e-75, No Iterations 3
DILUPBiCGStab:  Solving for ILambda_265_0, Initial residual = 1, Final residual = 4.34299208376e-75, No Iterations 3
DILUPBiCGStab:  Solving for ILambda_266_0, Initial residual = 1, Final residual = 6.93097989286e-61, No Iterations 2
DILUPBiCGStab:  Solving for ILambda_267_0, Initial residual = 1, Final residual = 7.94837904267e-61, No Iterations 2
DILUPBiCGStab:  Solving for ILambda_268_0, Initial residual = 1, Final residual = 6.1960708663e-76, No Iterations 3
DILUPBiCGStab:  Solving for ILambda_269_0, Initial residual = 1, Final residual = 3.03135447746e-75, No Iterations 3
DILUPBiCGStab:  Solving for ILambda_270_0, Initial residual = 1, Final residual = 1.46773184344e-75, No Iterations 3
DILUPBiCGStab:  Solving for ILambda_271_0, Initial residual = 1, Final residual = 6.60575618412e-61, No Iterations 2
DILUPBiCGStab:  Solving for ILambda_272_0, Initial residual = 1, Final residual = 6.11746103091e-61, No Iterations 2
DILUPBiCGStab:  Solving for ILambda_273_0, Initial residual = 1, Final residual = 1.56342229231e-61, No Iterations 2
DILUPBiCGStab:  Solving for ILambda_274_0, Initial residual = 1, Final residual = 2.94511833041e-75, No Iterations 3
DILUPBiCGStab:  Solving for ILambda_275_0, Initial residual = 1, Final residual = 2.14432392436e-61, No Iterations 2
DILUPBiCGStab:  Solving for ILambda_276_0, Initial residual = 1, Final residual = 3.21986877555e-61, No Iterations 32
DILUPBiCGStab:  Solving for ILambda_277_0, Initial residual = 1, Final residual = 7.98065423196e-61, No Iterations 45
DILUPBiCGStab:  Solving for ILambda_278_0, Initial residual = 1, Final residual = 4.66114000015e-61, No Iterations 53
DILUPBiCGStab:  Solving for ILambda_279_0, Initial residual = 1, Final residual = 7.39317788746e-61, No Iterations 58
DILUPBiCGStab:  Solving for ILambda_280_0, Initial residual = 1, Final residual = 4.72335402757e-61, No Iterations 59
DILUPBiCGStab:  Solving for ILambda_281_0, Initial residual = 1, Final residual = 2.57623023227e-61, No Iterations 56
DILUPBiCGStab:  Solving for ILambda_282_0, Initial residual = 1, Final residual = 9.77138289425e-62, No Iterations 56
DILUPBiCGStab:  Solving for ILambda_283_0, Initial residual = 1, Final residual = 8.58006404109e-61, No Iterations 57
DILUPBiCGStab:  Solving for ILambda_284_0, Initial residual = 1, Final residual = 6.96558769629e-61, No Iterations 56
DILUPBiCGStab:  Solving for ILambda_285_0, Initial residual = 1, Final residual = 5.74168021671e-61, No Iterations 53
[...]
DILUPBiCGStab:  Solving for ILambda_140_0, Initial residual = 8.92995979411e-16, Final residual = 2.46453129872e-61, No Iterations 44
DILUPBiCGStab:  Solving for ILambda_141_0, Initial residual = 7.2307161152e-16, Final residual = 2.74611698302e-61, No Iterations 39
DILUPBiCGStab:  Solving for ILambda_142_0, Initial residual = 6.42454081812e-16, Final residual = 2.31910640035e-62, No Iterations 35
DILUPBiCGStab:  Solving for ILambda_143_0, Initial residual = 4.76213058858e-16, Final residual = 2.3529802536e-61, No Iterations 26
DILUPBiCGStab:  Solving for ILambda_144_0, Initial residual = 4.38201795704e-16, Final residual = 2.4948195274e-62, No Iterations 15
DILUPBiCGStab:  Solving for ILambda_145_0, Initial residual = 5.64156488352e-16, Final residual = 2.10540941549e-62, No Iterations 14
DILUPBiCGStab:  Solving for ILambda_146_0, Initial residual = 6.07744776273e-16, Final residual = 9.38220422306e-62, No Iterations 15
DILUPBiCGStab:  Solving for ILambda_147_0, Initial residual = 5.83755105832e-16, Final residual = 1.92432368882e-61, No Iterations 16
DILUPBiCGStab:  Solving for ILambda_148_0, Initial residual = 6.14025430056e-16, Final residual = 6.91771639842e-61, No Iterations 18
DILUPBiCGStab:  Solving for ILambda_149_0, Initial residual = 6.54421893599e-16, Final residual = 1.78690939179e-61, No Iterations 14
DILUPBiCGStab:  Solving for ILambda_150_0, Initial residual = 6.68480197391e-16, Final residual = 6.38203822724e-62, No Iterations 17
DILUPBiCGStab:  Solving for ILambda_151_0, Initial residual = 6.54942986972e-16, Final residual = 5.45279764313e-61, No Iterations 18
DILUPBiCGStab:  Solving for ILambda_152_0, Initial residual = 6.03962515373e-16, Final residual = 7.86390185474e-62, No Iterations 16
DILUPBiCGStab:  Solving for ILambda_153_0, Initial residual = 6.2461351712e-16, Final residual = 5.87209261111e-61, No Iterations 16
DILUPBiCGStab:  Solving for ILambda_154_0, Initial residual = 5.95723937371e-16, Final residual = 2.62243801102e-62, No Iterations 14
DILUPBiCGStab:  Solving for ILambda_155_0, Initial residual = 4.85443855748e-16, Final residual = 2.12935220971e-61, No Iterations 14
DILUPBiCGStab:  Solving for ILambda_156_0, Initial residual = 4.49925886717e-16, Final residual = 2.87705589398e-61, No Iterations 26
DILUPBiCGStab:  Solving for ILambda_157_0, Initial residual = 6.28027647477e-16, Final residual = 3.29474747903e-61, No Iterations 36
DILUPBiCGStab:  Solving for ILambda_158_0, Initial residual = 6.66681354515e-16, Final residual = 3.02408775658e-61, No Iterations 40
DILUPBiCGStab:  Solving for ILambda_159_0, Initial residual = 7.49018186428e-16, Final residual = 9.15002903588e-61, No Iterations 42
DILUPBiCGStab:  Solving for ILambda_160_0, Initial residual = 8.53539727393e-16, Final residual = 5.73823304247e-61, No Iterations 43
DILUPBiCGStab:  Solving for ILambda_161_0, Initial residual = 9.78685756549e-16, Final residual = 1.62626384708e-61, No Iterations 45
DILUPBiCGStab:  Solving for ILambda_162_0, Initial residual = 7.4370527748e-16, Final residual = 3.4604571596e-61, No Iterations 47
DILUPBiCGStab:  Solving for ILambda_163_0, Initial residual = 7.07494896707e-16, Final residual = 3.64625075519e-61, No Iterations 47
DILUPBiCGStab:  Solving for ILambda_164_0, Initial residual = 9.23627295913e-16, Final residual = 2.4988236004e-61, No Iterations 41
DILUPBiCGStab:  Solving for ILambda_165_0, Initial residual = 7.73666616789e-16, Final residual = 4.2759618569e-61, No Iterations 39
DILUPBiCGStab:  Solving for ILambda_166_0, Initial residual = 6.36071452809e-16, Final residual = 1.83417722491e-61, No Iterations 35
DILUPBiCGStab:  Solving for ILambda_167_0, Initial residual = 4.81595310955e-16, Final residual = 7.43434442411e-62, No Iterations 26
DILUPBiCGStab:  Solving for ILambda_168_0, Initial residual = 4.81519849293e-16, Final residual = 4.44274439254e-62, No Iterations 2
DILUPBiCGStab:  Solving for ILambda_169_0, Initial residual = 6.06704629032e-16, Final residual = 5.48202759428e-62, No Iterations 2
DILUPBiCGStab:  Solving for ILambda_170_0, Initial residual = 6.3146829139e-16, Final residual = 7.57606830951e-62, No Iterations 2
DILUPBiCGStab:  Solving for ILambda_171_0, Initial residual = 6.42610103898e-16, Final residual = 6.83676313754e-62, No Iterations 2
DILUPBiCGStab:  Solving for ILambda_172_0, Initial residual = 6.25757679086e-16, Final residual = 4.39228615965e-61, No Iterations 2
DILUPBiCGStab:  Solving for ILambda_173_0, Initial residual = 6.43692060979e-16, Final residual = 1.34876631362e-61, No Iterations 2
DILUPBiCGStab:  Solving for ILambda_174_0, Initial residual = 6.58932257568e-16, Final residual = 1.15035477633e-61, No Iterations 2
DILUPBiCGStab:  Solving for ILambda_175_0, Initial residual = 6.25389548542e-16, Final residual = 1.53161750892e-61, No Iterations 2
DILUPBiCGStab:  Solving for ILambda_176_0, Initial residual = 5.95706601584e-16, Final residual = 6.18289699448e-62, No Iterations 2
DILUPBiCGStab:  Solving for ILambda_177_0, Initial residual = 5.64200337697e-16, Final residual = 2.80242241043e-62, No Iterations 2
DILUPBiCGStab:  Solving for ILambda_178_0, Initial residual = 5.88108427962e-16, Final residual = 4.56797699324e-62, No Iterations 2
DILUPBiCGStab:  Solving for ILambda_179_0, Initial residual = 4.24724750665e-16, Final residual = 5.37573434663e-62, No Iterations 2
DILUPBiCGStab:  Solving for ILambda_180_0, Initial residual = 4.87418096002e-16, Final residual = 1.07550932069e-61, No Iterations 26
DILUPBiCGStab:  Solving for ILambda_181_0, Initial residual = 6.49968635754e-16, Final residual = 2.68612713017e-61, No Iterations 33
DILUPBiCGStab:  Solving for ILambda_182_0, Initial residual = 6.92240423588e-16, Final residual = 4.07362332956e-62, No Iterations 40
DILUPBiCGStab:  Solving for ILambda_183_0, Initial residual = 9.0003124982e-16, Final residual = 2.21008822683e-61, No Iterations 42
DILUPBiCGStab:  Solving for ILambda_184_0, Initial residual = 8.07510152712e-16, Final residual = 2.29554288891e-61, No Iterations 47
DILUPBiCGStab:  Solving for ILambda_185_0, Initial residual = 6.85350977743e-16, Final residual = 5.69057287509e-61, No Iterations 46
DILUPBiCGStab:  Solving for ILambda_186_0, Initial residual = 6.91717290711e-16, Final residual = 5.20431013839e-61, No Iterations 47
DILUPBiCGStab:  Solving for ILambda_187_0, Initial residual = 9.91173641957e-16, Final residual = 1.71658285623e-61, No Iterations 44
DILUPBiCGStab:  Solving for ILambda_188_0, Initial residual = 8.42561075237e-16, Final residual = 3.43729015028e-61, No Iterations 42
DILUPBiCGStab:  Solving for ILambda_189_0, Initial residual = 7.22384298539e-16, Final residual = 8.33967364354e-61, No Iterations 39
DILUPBiCGStab:  Solving for ILambda_190_0, Initial residual = 6.50628415425e-16, Final residual = 1.64449127612e-61, No Iterations 36
DILUPBiCGStab:  Solving for ILambda_191_0, Initial residual = 4.42388898226e-16, Final residual = 9.06683874483e-62, No Iterations 26
DILUPBiCGStab:  Solving for ILambda_192_0, Initial residual = 1.6671724723e-16, Final residual = 6.18237053647e-62, No Iterations 13
DILUPBiCGStab:  Solving for ILambda_193_0, Initial residual = 1.71677321917e-16, Final residual = 3.62758299571e-62, No Iterations 14
DILUPBiCGStab:  Solving for ILambda_194_0, Initial residual = 1.51651428267e-16, Final residual = 3.47583465052e-61, No Iterations 14
DILUPBiCGStab:  Solving for ILambda_195_0, Initial residual = 1.14751695008e-16, Final residual = 1.15896313393e-62, No Iterations 14
DILUPBiCGStab:  Solving for ILambda_196_0, Initial residual = 1.24230801558e-16, Final residual = 4.20022175949e-61, No Iterations 15
DILUPBiCGStab:  Solving for ILambda_197_0, Initial residual = 1.08304821617e-16, Final residual = 1.04041481719e-61, No Iterations 16
DILUPBiCGStab:  Solving for ILambda_198_0, Initial residual = 1.09565745209e-16, Final residual = 7.8465740211e-61, No Iterations 13
DILUPBiCGStab:  Solving for ILambda_199_0, Initial residual = 1.19588889556e-16, Final residual = 1.33307947569e-61, No Iterations 14
DILUPBiCGStab:  Solving for ILambda_200_0, Initial residual = 1.58717801118e-16, Final residual = 1.8972350988e-61, No Iterations 15
DILUPBiCGStab:  Solving for ILambda_201_0, Initial residual = 2.03762805053e-16, Final residual = 4.27714536013e-61, No Iterations 15
DILUPBiCGStab:  Solving for ILambda_202_0, Initial residual = 2.02554398699e-16, Final residual = 3.78719739276e-61, No Iterations 13
DILUPBiCGStab:  Solving for ILambda_203_0, Initial residual = 1.86574881768e-16, Final residual = 1.70133014794e-62, No Iterations 13
DILUPBiCGStab:  Solving for ILambda_204_0, Initial residual = 1.6534109164e-16, Final residual = 6.01462992403e-61, No Iterations 25
DILUPBiCGStab:  Solving for ILambda_205_0, Initial residual = 1.74843142614e-16, Final residual = 6.46839010211e-61, No Iterations 33
DILUPBiCGStab:  Solving for ILambda_206_0, Initial residual = 1.9600402046e-16, Final residual = 1.76267259798e-61, No Iterations 41
DILUPBiCGStab:  Solving for ILambda_207_0, Initial residual = 1.51254744662e-16, Final residual = 1.18294221649e-61, No Iterations 42
DILUPBiCGStab:  Solving for ILambda_208_0, Initial residual = 2.28180771417e-16, Final residual = 2.99162721897e-61, No Iterations 46
DILUPBiCGStab:  Solving for ILambda_209_0, Initial residual = 2.39699892237e-16, Final residual = 3.98256012211e-61, No Iterations 45
DILUPBiCGStab:  Solving for ILambda_210_0, Initial residual = 1.10530940664e-16, Final residual = 2.61775398821e-61, No Iterations 43
DILUPBiCGStab:  Solving for ILambda_211_0, Initial residual = 1.23023414957e-16, Final residual = 3.25000096039e-61, No Iterations 45
DILUPBiCGStab:  Solving for ILambda_212_0, Initial residual = 2.03776061831e-16, Final residual = 2.63012164268e-61, No Iterations 41
DILUPBiCGStab:  Solving for ILambda_213_0, Initial residual = 2.14881673136e-16, Final residual = 4.1110061291e-61, No Iterations 38
DILUPBiCGStab:  Solving for ILambda_214_0, Initial residual = 2.06878148016e-16, Final residual = 2.74776101834e-61, No Iterations 34
DILUPBiCGStab:  Solving for ILambda_215_0, Initial residual = 2.13259757266e-16, Final residual = 6.20027733654e-61, No Iterations 24
DILUPBiCGStab:  Solving for ILambda_216_0, Initial residual = 1.85140600302e-16, Final residual = 1.38948158029e-61, No Iterations 2
DILUPBiCGStab:  Solving for ILambda_217_0, Initial residual = 1.99453842143e-16, Final residual = 1.04049242854e-62, No Iterations 2
DILUPBiCGStab:  Solving for ILambda_218_0, Initial residual = 1.97805922592e-16, Final residual = 3.55707922815e-62, No Iterations 2
DILUPBiCGStab:  Solving for ILambda_219_0, Initial residual = 1.69286003015e-16, Final residual = 9.93057339663e-63, No Iterations 2
DILUPBiCGStab:  Solving for ILambda_220_0, Initial residual = 1.25364256125e-16, Final residual = 2.87977077088e-62, No Iterations 2
DILUPBiCGStab:  Solving for ILambda_221_0, Initial residual = 1.3845634471e-16, Final residual = 4.97410091318e-62, No Iterations 2
DILUPBiCGStab:  Solving for ILambda_222_0, Initial residual = 1.24154320143e-16, Final residual = 7.07022822488e-63, No Iterations 2
DILUPBiCGStab:  Solving for ILambda_223_0, Initial residual = 1.19322734233e-16, Final residual = 5.68705025887e-63, No Iterations 2
DILUPBiCGStab:  Solving for ILambda_224_0, Initial residual = 1.29959259526e-16, Final residual = 2.84649234069e-62, No Iterations 2
DILUPBiCGStab:  Solving for ILambda_225_0, Initial residual = 1.46967706425e-16, Final residual = 7.55729154835e-63, No Iterations 2
DILUPBiCGStab:  Solving for ILambda_226_0, Initial residual = 1.73356853786e-16, Final residual = 4.61609526049e-62, No Iterations 2
DILUPBiCGStab:  Solving for ILambda_227_0, Initial residual = 1.60164829486e-16, Final residual = 1.64890309518e-62, No Iterations 2
DILUPBiCGStab:  Solving for ILambda_228_0, Initial residual = 1.88324266662e-16, Final residual = 1.6002159109e-61, No Iterations 25
DILUPBiCGStab:  Solving for ILambda_229_0, Initial residual = 2.1686509116e-16, Final residual = 1.6385654284e-62, No Iterations 34
DILUPBiCGStab:  Solving for ILambda_230_0, Initial residual = 2.41717981836e-16, Final residual = 1.188388913e-61, No Iterations 38
DILUPBiCGStab:  Solving for ILambda_231_0, Initial residual = 1.88172833461e-16, Final residual = 9.87256246699e-61, No Iterations 44
DILUPBiCGStab:  Solving for ILambda_232_0, Initial residual = 1.34919334214e-16, Final residual = 4.70630016483e-61, No Iterations 46
DILUPBiCGStab:  Solving for ILambda_233_0, Initial residual = 1.97923703971e-16, Final residual = 5.42805248502e-61, No Iterations 46
DILUPBiCGStab:  Solving for ILambda_234_0, Initial residual = 1.74774819217e-16, Final residual = 6.11327734358e-61, No Iterations 46
DILUPBiCGStab:  Solving for ILambda_235_0, Initial residual = 1.50577629203e-16, Final residual = 2.30236562743e-61, No Iterations 44
DILUPBiCGStab:  Solving for ILambda_236_0, Initial residual = 1.91948465971e-16, Final residual = 6.85811569397e-62, No Iterations 42
DILUPBiCGStab:  Solving for ILambda_237_0, Initial residual = 1.98147029702e-16, Final residual = 2.87562168704e-61, No Iterations 38
DILUPBiCGStab:  Solving for ILambda_238_0, Initial residual = 1.71105750811e-16, Final residual = 1.33140958845e-62, No Iterations 34
DILUPBiCGStab:  Solving for ILambda_239_0, Initial residual = 1.60653290789e-16, Final residual = 6.72173562885e-62, No Iterations 24
DILUPBiCGStab:  Solving for ILambda_240_0, Initial residual = 3.87704686647e-17, Final residual = 3.44772829407e-63, No Iterations 12
DILUPBiCGStab:  Solving for ILambda_241_0, Initial residual = 4.55523306527e-17, Final residual = 2.15854434433e-61, No Iterations 11
DILUPBiCGStab:  Solving for ILambda_242_0, Initial residual = 6.51249444513e-17, Final residual = 4.31821409783e-62, No Iterations 11
DILUPBiCGStab:  Solving for ILambda_243_0, Initial residual = 6.42522915085e-17, Final residual = 1.97462877481e-61, No Iterations 13
DILUPBiCGStab:  Solving for ILambda_244_0, Initial residual = 6.50436192136e-17, Final residual = 3.38420763506e-62, No Iterations 12
DILUPBiCGStab:  Solving for ILambda_245_0, Initial residual = 7.10611769298e-17, Final residual = 3.15956572448e-61, No Iterations 13
DILUPBiCGStab:  Solving for ILambda_246_0, Initial residual = 7.41859526003e-17, Final residual = 1.35388457903e-61, No Iterations 12
DILUPBiCGStab:  Solving for ILambda_247_0, Initial residual = 7.10647460625e-17, Final residual = 1.21802853063e-62, No Iterations 12
DILUPBiCGStab:  Solving for ILambda_248_0, Initial residual = 6.7898670428e-17, Final residual = 7.51276164653e-62, No Iterations 12
DILUPBiCGStab:  Solving for ILambda_249_0, Initial residual = 6.69181786903e-17, Final residual = 3.89280709674e-61, No Iterations 11
DILUPBiCGStab:  Solving for ILambda_250_0, Initial residual = 4.80328778726e-17, Final residual = 4.57985327773e-61, No Iterations 12
DILUPBiCGStab:  Solving for ILambda_251_0, Initial residual = 4.26985541286e-17, Final residual = 2.41750185728e-63, No Iterations 12
DILUPBiCGStab:  Solving for ILambda_252_0, Initial residual = 4.60229462918e-17, Final residual = 5.05978341685e-61, No Iterations 23
DILUPBiCGStab:  Solving for ILambda_253_0, Initial residual = 5.35984304274e-17, Final residual = 5.5173639262e-61, No Iterations 31
DILUPBiCGStab:  Solving for ILambda_254_0, Initial residual = 6.70122508305e-17, Final residual = 9.45216790872e-61, No Iterations 38
DILUPBiCGStab:  Solving for ILambda_255_0, Initial residual = 6.91555150111e-17, Final residual = 3.02553018543e-61, No Iterations 38
DILUPBiCGStab:  Solving for ILambda_256_0, Initial residual = 6.81066998762e-17, Final residual = 3.5366711019e-61, No Iterations 44
DILUPBiCGStab:  Solving for ILambda_257_0, Initial residual = 8.04176582779e-17, Final residual = 3.23604225011e-61, No Iterations 44
DILUPBiCGStab:  Solving for ILambda_258_0, Initial residual = 8.64640239937e-17, Final residual = 3.68886746502e-61, No Iterations 42
DILUPBiCGStab:  Solving for ILambda_259_0, Initial residual = 8.62819982265e-17, Final residual = 2.73406823882e-61, No Iterations 41
DILUPBiCGStab:  Solving for ILambda_260_0, Initial residual = 7.68189527737e-17, Final residual = 5.7564241767e-61, No Iterations 38
DILUPBiCGStab:  Solving for ILambda_261_0, Initial residual = 7.21589401702e-17, Final residual = 2.27779286359e-62, No Iterations 38
DILUPBiCGStab:  Solving for ILambda_262_0, Initial residual = 5.85207742837e-17, Final residual = 2.88307464413e-61, No Iterations 31
DILUPBiCGStab:  Solving for ILambda_263_0, Initial residual = 4.2720988677e-17, Final residual = 2.57417202673e-61, No Iterations 24
DILUPBiCGStab:  Solving for ILambda_264_0, Initial residual = 5.25758739115e-17, Final residual = 9.27761439591e-63, No Iterations 2
DILUPBiCGStab:  Solving for ILambda_265_0, Initial residual = 5.17264203312e-17, Final residual = 1.96018253931e-63, No Iterations 2
DILUPBiCGStab:  Solving for ILambda_266_0, Initial residual = 7.00406599184e-17, Final residual = 4.74155167106e-63, No Iterations 2
DILUPBiCGStab:  Solving for ILambda_267_0, Initial residual = 7.3223051588e-17, Final residual = 8.43704817447e-63, No Iterations 2
DILUPBiCGStab:  Solving for ILambda_268_0, Initial residual = 7.2354732592e-17, Final residual = 8.5865873092e-63, No Iterations 2
DILUPBiCGStab:  Solving for ILambda_269_0, Initial residual = 7.15391857723e-17, Final residual = 8.2804754636e-63, No Iterations 2
DILUPBiCGStab:  Solving for ILambda_270_0, Initial residual = 7.25627620403e-17, Final residual = 3.81648765147e-63, No Iterations 2
DILUPBiCGStab:  Solving for ILambda_271_0, Initial residual = 6.89370331028e-17, Final residual = 8.02810480458e-63, No Iterations 2
DILUPBiCGStab:  Solving for ILambda_272_0, Initial residual = 6.5226664733e-17, Final residual = 2.35766762449e-63, No Iterations 2
DILUPBiCGStab:  Solving for ILambda_273_0, Initial residual = 6.40208077597e-17, Final residual = 1.15571958322e-62, No Iterations 2
DILUPBiCGStab:  Solving for ILambda_274_0, Initial residual = 4.64726570108e-17, Final residual = 1.32809128558e-63, No Iterations 2
DILUPBiCGStab:  Solving for ILambda_275_0, Initial residual = 4.28961311169e-17, Final residual = 2.46148905867e-62, No Iterations 2
DILUPBiCGStab:  Solving for ILambda_276_0, Initial residual = 5.09998468906e-17, Final residual = 4.1625616715e-61, No Iterations 24
DILUPBiCGStab:  Solving for ILambda_277_0, Initial residual = 5.33572590327e-17, Final residual = 7.7711509296e-62, No Iterations 33
DILUPBiCGStab:  Solving for ILambda_278_0, Initial residual = 8.04727248966e-17, Final residual = 3.50775654398e-62, No Iterations 36
DILUPBiCGStab:  Solving for ILambda_279_0, Initial residual = 7.95873250513e-17, Final residual = 9.98351983653e-61, No Iterations 41
DILUPBiCGStab:  Solving for ILambda_280_0, Initial residual = 8.63322210222e-17, Final residual = 2.29489592947e-61, No Iterations 43
DILUPBiCGStab:  Solving for ILambda_281_0, Initial residual = 7.57020691796e-17, Final residual = 1.77882160568e-61, No Iterations 42
DILUPBiCGStab:  Solving for ILambda_282_0, Initial residual = 7.853672535e-17, Final residual = 1.23143035315e-61, No Iterations 44
DILUPBiCGStab:  Solving for ILambda_283_0, Initial residual = 7.33342045775e-17, Final residual = 1.74491654492e-61, No Iterations 43
DILUPBiCGStab:  Solving for ILambda_284_0, Initial residual = 7.05826582112e-17, Final residual = 4.95585924915e-61, No Iterations 39
DILUPBiCGStab:  Solving for ILambda_285_0, Initial residual = 7.10045806828e-17, Final residual = 8.09638754293e-61, No Iterations 38
DILUPBiCGStab:  Solving for ILambda_286_0, Initial residual = 5.12869071342e-17, Final residual = 1.04867617096e-61, No Iterations 33
DILUPBiCGStab:  Solving for ILambda_287_0, Initial residual = 4.14779107485e-17, Final residual = 5.60941766332e-62, No Iterations 23
min/max(T) = 1000, 1000
ExecutionTime = 34.58 s  ClockTime = 34 s

writeObjects writeObjects1.writeObjects write:
    writing object a
    writing object qem
End

