/*---------------------------------------------------------------------------*\
| =========                 |                                                 |
| \\      /  F ield         | OpenFOAM: The Open Source CFD Toolbox           |
|  \\    /   O peration     | Version:  2306                                  |
|   \\  /    A nd           | Website:  www.openfoam.com                      |
|    \\/     M anipulation  |                                                 |
\*---------------------------------------------------------------------------*/
Build  : _fbf00d6b-20230626 OPENFOAM=2306 version=2306
Arch   : "LSB;label=32;scalar=64"
Exec   : fireRADFoam_MaCFP
Date   : Mar 12 2024
Time   : 19:34:59
Host   : pop-os
PID    : 173477
I/O    : uncollated
Case   : /home/rafay/Desktop/Study/Radiative_Heat_Transfer/Local_copy_RHT2324/01_Projects/02_Rafay/Case_1_q1D_SolidAngle/new_case3/th_8-ph_16/tau_0.05/res_2
nProcs : 1
trapFpe: Floating point exception trapping enabled (FOAM_SIGFPE).
fileModificationChecking : Monitoring run-time modified files using timeStampMaster (fileModificationSkew 5, maxFileModificationPolls 20)
allowSystemOperations : Allowing user-supplied system call operations

// * * * * * * * * * * * * * * * * * * * * * * * * * * * * * * * * * * * * * //
Create time

Create mesh for time = 0


PIMPLE: no residual control data found. Calculations will employ 10 corrector loops

Reading thermophysical properties

Selecting thermodynamics package 
{
    type            hePsiThermo;
    mixture         singleStepReactingMixture;
    transport       sutherland;
    thermo          janaf;
    energy          sensibleEnthalpy;
    equationOfState perfectGas;
    specie          specie;
}

Selecting chemistryReader foamChemistryReader
    elements not defined in "/home/rafay/Desktop/Study/Radiative_Heat_Transfer/Local_copy_RHT2324/01_Projects/02_Rafay/Case_1_q1D_SolidAngle/new_case3/th_8-ph_16/tau_0.05/res_2/constant/reactions"
Fuel heat of combustion :47168962.4726
stoichiometric air-fuel ratio :14.6914056505
stoichiometric oxygen-fuel ratio :3.42181919285
Maximum products mass concentrations:
    H2O: 0.0818486943001
    CO2: 0.199950099979
    N2: 0.718201205721
Creating component thermo properties:
    multi-component carrier - 6 species
    no liquid components
    no solid components
Creating field rho


Reading field U

Reading/calculating face flux field phi

Selecting radiationModel fvDOM
Selecting absorptionEmissionModel constantAbsorptionEmission
Selecting scatterModel none
Selecting sootModel none
fvDOM : Allocated 512 rays with average orientation:
	I0 : dAve : 	(9.42486011392e-05 0.00191847434919 0.00718868112899) : omega : 	0.00747310942032 : d : 	(0.00957262838512 0.194855327179 0.980785280403)
	I1 : dAve : 	(0.000281838137867 0.00189999839246 0.00718868112899) : omega : 	0.00747310942032 : d : 	(0.0286256955111 0.19297876386 0.980785280403)
	I2 : dAve : 	(0.000466713419259 0.00186322441257 0.00718868112899) : omega : 	0.00747310942032 : d : 	(0.0474030815409 0.189243709551 0.980785280403)
	I3 : dAve : 	(0.000647093995292 0.00180850656304 0.00718868112899) : omega : 	0.00747310942032 : d : 	(0.0657239499823 0.183686134869 0.980785280403)
	I4 : dAve : 	(0.000821242702413 0.00173637180669 0.00718868112899) : omega : 	0.00747310942032 : d : 	(0.0834118608569 0.176359562295 0.980785280403)
	I5 : dAve : 	(0.000987482393372 0.00164751484063 0.00718868112899) : omega : 	0.00747310942032 : d : 	(0.100296469914 0.167334550727 0.980785280403)
	I6 : dAve : 	(0.00114421208907 0.00154279140604 0.00718868112899) : omega : 	0.00747310942032 : d : 	(0.116215169138 0.156698015962 0.980785280403)
	I7 : dAve : 	(0.00128992239686 0.00142321004683 0.00718868112899) : omega : 	0.00747310942032 : d : 	(0.131014652754 0.144552393644 0.980785280403)
	I8 : dAve : 	(0.00142321004683 0.00128992239686 0.00718868112899) : omega : 	0.00747310942032 : d : 	(0.144552393644 0.131014652754 0.980785280403)
	I9 : dAve : 	(0.00154279140604 0.00114421208907 0.00718868112899) : omega : 	0.00747310942032 : d : 	(0.156698015962 0.116215169138 0.980785280403)
	I10 : dAve : 	(0.00164751484063 0.000987482393372 0.00718868112899) : omega : 	0.00747310942032 : d : 	(0.167334550727 0.100296469914 0.980785280403)
	I11 : dAve : 	(0.00173637180669 0.000821242702413 0.00718868112899) : omega : 	0.00747310942032 : d : 	(0.176359562295 0.0834118608569 0.980785280403)
	I12 : dAve : 	(0.00180850656304 0.000647093995292 0.00718868112899) : omega : 	0.00747310942032 : d : 	(0.183686134869 0.0657239499823 0.980785280403)
	I13 : dAve : 	(0.00186322441257 0.000466713419259 0.00718868112899) : omega : 	0.00747310942032 : d : 	(0.189243709551 0.0474030815409 0.980785280403)
	I14 : dAve : 	(0.00189999839246 0.000281838137867 0.00718868112899) : omega : 	0.00747310942032 : d : 	(0.19297876386 0.0286256955111 0.980785280403)
	I15 : dAve : 	(0.00191847434919 9.42486011392e-05 0.00718868112899) : omega : 	0.00747310942032 : d : 	(0.194855327179 0.00957262838512 0.980785280403)
	I16 : dAve : 	(0.00191847434919 -9.42486011392e-05 0.00718868112899) : omega : 	0.00747310942032 : d : 	(0.194855327179 -0.00957262838512 0.980785280403)
	I17 : dAve : 	(0.00189999839246 -0.000281838137867 0.00718868112899) : omega : 	0.00747310942032 : d : 	(0.19297876386 -0.0286256955111 0.980785280403)
	I18 : dAve : 	(0.00186322441257 -0.000466713419259 0.00718868112899) : omega : 	0.00747310942032 : d : 	(0.189243709551 -0.0474030815409 0.980785280403)
	I19 : dAve : 	(0.00180850656304 -0.000647093995292 0.00718868112899) : omega : 	0.00747310942032 : d : 	(0.183686134869 -0.0657239499823 0.980785280403)
	I20 : dAve : 	(0.00173637180669 -0.000821242702413 0.00718868112899) : omega : 	0.00747310942032 : d : 	(0.176359562295 -0.0834118608569 0.980785280403)
	I21 : dAve : 	(0.00164751484063 -0.000987482393372 0.00718868112899) : omega : 	0.00747310942032 : d : 	(0.167334550727 -0.100296469914 0.980785280403)
	I22 : dAve : 	(0.00154279140604 -0.00114421208907 0.00718868112899) : omega : 	0.00747310942032 : d : 	(0.156698015962 -0.116215169138 0.980785280403)
	I23 : dAve : 	(0.00142321004683 -0.00128992239686 0.00718868112899) : omega : 	0.00747310942032 : d : 	(0.144552393644 -0.131014652754 0.980785280403)
	I24 : dAve : 	(0.00128992239686 -0.00142321004683 0.00718868112899) : omega : 	0.00747310942032 : d : 	(0.131014652754 -0.144552393644 0.980785280403)
	I25 : dAve : 	(0.00114421208907 -0.00154279140604 0.00718868112899) : omega : 	0.00747310942032 : d : 	(0.116215169138 -0.156698015962 0.980785280403)
	I26 : dAve : 	(0.000987482393372 -0.00164751484063 0.00718868112899) : omega : 	0.00747310942032 : d : 	(0.100296469914 -0.167334550727 0.980785280403)
	I27 : dAve : 	(0.000821242702413 -0.00173637180669 0.00718868112899) : omega : 	0.00747310942032 : d : 	(0.0834118608569 -0.176359562295 0.980785280403)
	I28 : dAve : 	(0.000647093995292 -0.00180850656304 0.00718868112899) : omega : 	0.00747310942032 : d : 	(0.0657239499823 -0.183686134869 0.980785280403)
	I29 : dAve : 	(0.000466713419259 -0.00186322441257 0.00718868112899) : omega : 	0.00747310942032 : d : 	(0.0474030815409 -0.189243709551 0.980785280403)
	I30 : dAve : 	(0.000281838137867 -0.00189999839246 0.00718868112899) : omega : 	0.00747310942032 : d : 	(0.0286256955111 -0.19297876386 0.980785280403)
	I31 : dAve : 	(9.42486011392e-05 -0.00191847434919 0.00718868112899) : omega : 	0.00747310942032 : d : 	(0.00957262838512 -0.194855327179 0.980785280403)
	I32 : dAve : 	(-9.42486011392e-05 -0.00191847434919 0.00718868112899) : omega : 	0.00747310942032 : d : 	(-0.00957262838512 -0.194855327179 0.980785280403)
	I33 : dAve : 	(-0.000281838137867 -0.00189999839246 0.00718868112899) : omega : 	0.00747310942032 : d : 	(-0.0286256955111 -0.19297876386 0.980785280403)
	I34 : dAve : 	(-0.000466713419259 -0.00186322441257 0.00718868112899) : omega : 	0.00747310942032 : d : 	(-0.0474030815409 -0.189243709551 0.980785280403)
	I35 : dAve : 	(-0.000647093995292 -0.00180850656304 0.00718868112899) : omega : 	0.00747310942032 : d : 	(-0.0657239499823 -0.183686134869 0.980785280403)
	I36 : dAve : 	(-0.000821242702413 -0.00173637180669 0.00718868112899) : omega : 	0.00747310942032 : d : 	(-0.0834118608569 -0.176359562295 0.980785280403)
	I37 : dAve : 	(-0.000987482393372 -0.00164751484063 0.00718868112899) : omega : 	0.00747310942032 : d : 	(-0.100296469914 -0.167334550727 0.980785280403)
	I38 : dAve : 	(-0.00114421208907 -0.00154279140604 0.00718868112899) : omega : 	0.00747310942032 : d : 	(-0.116215169138 -0.156698015962 0.980785280403)
	I39 : dAve : 	(-0.00128992239686 -0.00142321004683 0.00718868112899) : omega : 	0.00747310942032 : d : 	(-0.131014652754 -0.144552393644 0.980785280403)
	I40 : dAve : 	(-0.00142321004683 -0.00128992239686 0.00718868112899) : omega : 	0.00747310942032 : d : 	(-0.144552393644 -0.131014652754 0.980785280403)
	I41 : dAve : 	(-0.00154279140604 -0.00114421208907 0.00718868112899) : omega : 	0.00747310942032 : d : 	(-0.156698015962 -0.116215169138 0.980785280403)
	I42 : dAve : 	(-0.00164751484063 -0.000987482393372 0.00718868112899) : omega : 	0.00747310942032 : d : 	(-0.167334550727 -0.100296469914 0.980785280403)
	I43 : dAve : 	(-0.00173637180669 -0.000821242702413 0.00718868112899) : omega : 	0.00747310942032 : d : 	(-0.176359562295 -0.0834118608569 0.980785280403)
	I44 : dAve : 	(-0.00180850656304 -0.000647093995292 0.00718868112899) : omega : 	0.00747310942032 : d : 	(-0.183686134869 -0.0657239499823 0.980785280403)
	I45 : dAve : 	(-0.00186322441257 -0.000466713419259 0.00718868112899) : omega : 	0.00747310942032 : d : 	(-0.189243709551 -0.0474030815409 0.980785280403)
	I46 : dAve : 	(-0.00189999839246 -0.000281838137867 0.00718868112899) : omega : 	0.00747310942032 : d : 	(-0.19297876386 -0.0286256955111 0.980785280403)
	I47 : dAve : 	(-0.00191847434919 -9.42486011392e-05 0.00718868112899) : omega : 	0.00747310942032 : d : 	(-0.194855327179 -0.00957262838512 0.980785280403)
	I48 : dAve : 	(-0.00191847434919 9.42486011392e-05 0.00718868112899) : omega : 	0.00747310942032 : d : 	(-0.194855327179 0.00957262838512 0.980785280403)
	I49 : dAve : 	(-0.00189999839246 0.000281838137867 0.00718868112899) : omega : 	0.00747310942032 : d : 	(-0.19297876386 0.0286256955111 0.980785280403)
	I50 : dAve : 	(-0.00186322441257 0.000466713419259 0.00718868112899) : omega : 	0.00747310942032 : d : 	(-0.189243709551 0.0474030815409 0.980785280403)
	I51 : dAve : 	(-0.00180850656304 0.000647093995292 0.00718868112899) : omega : 	0.00747310942032 : d : 	(-0.183686134869 0.0657239499823 0.980785280403)
	I52 : dAve : 	(-0.00173637180669 0.000821242702413 0.00718868112899) : omega : 	0.00747310942032 : d : 	(-0.176359562295 0.0834118608569 0.980785280403)
	I53 : dAve : 	(-0.00164751484063 0.000987482393372 0.00718868112899) : omega : 	0.00747310942032 : d : 	(-0.167334550727 0.100296469914 0.980785280403)
	I54 : dAve : 	(-0.00154279140604 0.00114421208907 0.00718868112899) : omega : 	0.00747310942032 : d : 	(-0.156698015962 0.116215169138 0.980785280403)
	I55 : dAve : 	(-0.00142321004683 0.00128992239686 0.00718868112899) : omega : 	0.00747310942032 : d : 	(-0.144552393644 0.131014652754 0.980785280403)
	I56 : dAve : 	(-0.00128992239686 0.00142321004683 0.00718868112899) : omega : 	0.00747310942032 : d : 	(-0.131014652754 0.144552393644 0.980785280403)
	I57 : dAve : 	(-0.00114421208907 0.00154279140604 0.00718868112899) : omega : 	0.00747310942032 : d : 	(-0.116215169138 0.156698015962 0.980785280403)
	I58 : dAve : 	(-0.000987482393372 0.00164751484063 0.00718868112899) : omega : 	0.00747310942032 : d : 	(-0.100296469914 0.167334550727 0.980785280403)
	I59 : dAve : 	(-0.000821242702413 0.00173637180669 0.00718868112899) : omega : 	0.00747310942032 : d : 	(-0.0834118608569 0.176359562295 0.980785280403)
	I60 : dAve : 	(-0.000647093995292 0.00180850656304 0.00718868112899) : omega : 	0.00747310942032 : d : 	(-0.0657239499823 0.183686134869 0.980785280403)
	I61 : dAve : 	(-0.000466713419259 0.00186322441257 0.00718868112899) : omega : 	0.00747310942032 : d : 	(-0.0474030815409 0.189243709551 0.980785280403)
	I62 : dAve : 	(-0.000281838137867 0.00189999839246 0.00718868112899) : omega : 	0.00747310942032 : d : 	(-0.0286256955111 0.19297876386 0.980785280403)
	I63 : dAve : 	(-9.42486011392e-05 0.00191847434919 0.00718868112899) : omega : 	0.00747310942032 : d : 	(-0.00957262838512 0.194855327179 0.980785280403)
	I64 : dAve : 	(0.000592886480867 0.0120684815666 0.0173550114772) : omega : 	0.0212816150956 : d : 	(0.0272605392598 0.554901024343 0.831469612303)
	I65 : dAve : 	(0.00177294962168 0.0119522554918 0.0173550114772) : omega : 	0.0212816150956 : d : 	(0.0815190838842 0.549557024139 0.831469612303)
	I66 : dAve : 	(0.00293593828845 0.0117209226628 0.0173550114772) : omega : 	0.0212816150956 : d : 	(0.134992555168 0.538920489374 0.831469612303)
	I67 : dAve : 	(0.00407065226456 0.0113767109413 0.0173550114772) : omega : 	0.0212816150956 : d : 	(0.187165974351 0.523093855692 0.831469612303)
	I68 : dAve : 	(0.00516616363411 0.0109229352743 0.0173550114772) : omega : 	0.0212816150956 : d : 	(0.237536882886 0.502229542228 0.831469612303)
	I69 : dAve : 	(0.00621192202375 0.0103639657696 0.0173550114772) : omega : 	0.0212816150956 : d : 	(0.285620181387 0.476528483725 0.831469612303)
	I70 : dAve : 	(0.00719785620852 0.00970518560891 0.0173550114772) : omega : 	0.0212816150956 : d : 	(0.330952801406 0.446238195428 0.831469612303)
	I71 : dAve : 	(0.00811447110325 0.00895293920544 0.0173550114772) : omega : 	0.0212816150956 : d : 	(0.373098165031 0.41165038937 0.831469612303)
	I72 : dAve : 	(0.00895293920544 0.00811447110325 0.0173550114772) : omega : 	0.0212816150956 : d : 	(0.41165038937 0.373098165031 0.831469612303)
	I73 : dAve : 	(0.00970518560891 0.00719785620852 0.0173550114772) : omega : 	0.0212816150956 : d : 	(0.446238195428 0.330952801406 0.831469612303)
	I74 : dAve : 	(0.0103639657696 0.00621192202375 0.0173550114772) : omega : 	0.0212816150956 : d : 	(0.476528483725 0.285620181387 0.831469612303)
	I75 : dAve : 	(0.0109229352743 0.00516616363411 0.0173550114772) : omega : 	0.0212816150956 : d : 	(0.502229542228 0.237536882886 0.831469612303)
	I76 : dAve : 	(0.0113767109413 0.00407065226456 0.0173550114772) : omega : 	0.0212816150956 : d : 	(0.523093855692 0.187165974351 0.831469612303)
	I77 : dAve : 	(0.0117209226628 0.00293593828845 0.0173550114772) : omega : 	0.0212816150956 : d : 	(0.538920489374 0.134992555168 0.831469612303)
	I78 : dAve : 	(0.0119522554918 0.00177294962168 0.0173550114772) : omega : 	0.0212816150956 : d : 	(0.549557024139 0.0815190838842 0.831469612303)
	I79 : dAve : 	(0.0120684815666 0.000592886480867 0.0173550114772) : omega : 	0.0212816150956 : d : 	(0.554901024343 0.0272605392598 0.831469612303)
	I80 : dAve : 	(0.0120684815666 -0.000592886480867 0.0173550114772) : omega : 	0.0212816150956 : d : 	(0.554901024343 -0.0272605392598 0.831469612303)
	I81 : dAve : 	(0.0119522554918 -0.00177294962168 0.0173550114772) : omega : 	0.0212816150956 : d : 	(0.549557024139 -0.0815190838842 0.831469612303)
	I82 : dAve : 	(0.0117209226628 -0.00293593828845 0.0173550114772) : omega : 	0.0212816150956 : d : 	(0.538920489374 -0.134992555168 0.831469612303)
	I83 : dAve : 	(0.0113767109413 -0.00407065226456 0.0173550114772) : omega : 	0.0212816150956 : d : 	(0.523093855692 -0.187165974351 0.831469612303)
	I84 : dAve : 	(0.0109229352743 -0.00516616363411 0.0173550114772) : omega : 	0.0212816150956 : d : 	(0.502229542228 -0.237536882886 0.831469612303)
	I85 : dAve : 	(0.0103639657696 -0.00621192202375 0.0173550114772) : omega : 	0.0212816150956 : d : 	(0.476528483725 -0.285620181387 0.831469612303)
	I86 : dAve : 	(0.00970518560891 -0.00719785620852 0.0173550114772) : omega : 	0.0212816150956 : d : 	(0.446238195428 -0.330952801406 0.831469612303)
	I87 : dAve : 	(0.00895293920544 -0.00811447110325 0.0173550114772) : omega : 	0.0212816150956 : d : 	(0.41165038937 -0.373098165031 0.831469612303)
	I88 : dAve : 	(0.00811447110325 -0.00895293920544 0.0173550114772) : omega : 	0.0212816150956 : d : 	(0.373098165031 -0.41165038937 0.831469612303)
	I89 : dAve : 	(0.00719785620852 -0.00970518560891 0.0173550114772) : omega : 	0.0212816150956 : d : 	(0.330952801406 -0.446238195428 0.831469612303)
	I90 : dAve : 	(0.00621192202375 -0.0103639657696 0.0173550114772) : omega : 	0.0212816150956 : d : 	(0.285620181387 -0.476528483725 0.831469612303)
	I91 : dAve : 	(0.00516616363411 -0.0109229352743 0.0173550114772) : omega : 	0.0212816150956 : d : 	(0.237536882886 -0.502229542228 0.831469612303)
	I92 : dAve : 	(0.00407065226456 -0.0113767109413 0.0173550114772) : omega : 	0.0212816150956 : d : 	(0.187165974351 -0.523093855692 0.831469612303)
	I93 : dAve : 	(0.00293593828845 -0.0117209226628 0.0173550114772) : omega : 	0.0212816150956 : d : 	(0.134992555168 -0.538920489374 0.831469612303)
	I94 : dAve : 	(0.00177294962168 -0.0119522554918 0.0173550114772) : omega : 	0.0212816150956 : d : 	(0.0815190838842 -0.549557024139 0.831469612303)
	I95 : dAve : 	(0.000592886480867 -0.0120684815666 0.0173550114772) : omega : 	0.0212816150956 : d : 	(0.0272605392598 -0.554901024343 0.831469612303)
	I96 : dAve : 	(-0.000592886480867 -0.0120684815666 0.0173550114772) : omega : 	0.0212816150956 : d : 	(-0.0272605392598 -0.554901024343 0.831469612303)
	I97 : dAve : 	(-0.00177294962168 -0.0119522554918 0.0173550114772) : omega : 	0.0212816150956 : d : 	(-0.0815190838842 -0.549557024139 0.831469612303)
	I98 : dAve : 	(-0.00293593828845 -0.0117209226628 0.0173550114772) : omega : 	0.0212816150956 : d : 	(-0.134992555168 -0.538920489374 0.831469612303)
	I99 : dAve : 	(-0.00407065226456 -0.0113767109413 0.0173550114772) : omega : 	0.0212816150956 : d : 	(-0.187165974351 -0.523093855692 0.831469612303)
	I100 : dAve : 	(-0.00516616363411 -0.0109229352743 0.0173550114772) : omega : 	0.0212816150956 : d : 	(-0.237536882886 -0.502229542228 0.831469612303)
	I101 : dAve : 	(-0.00621192202375 -0.0103639657696 0.0173550114772) : omega : 	0.0212816150956 : d : 	(-0.285620181387 -0.476528483725 0.831469612303)
	I102 : dAve : 	(-0.00719785620852 -0.00970518560891 0.0173550114772) : omega : 	0.0212816150956 : d : 	(-0.330952801406 -0.446238195428 0.831469612303)
	I103 : dAve : 	(-0.00811447110325 -0.00895293920544 0.0173550114772) : omega : 	0.0212816150956 : d : 	(-0.373098165031 -0.41165038937 0.831469612303)
	I104 : dAve : 	(-0.00895293920544 -0.00811447110325 0.0173550114772) : omega : 	0.0212816150956 : d : 	(-0.41165038937 -0.373098165031 0.831469612303)
	I105 : dAve : 	(-0.00970518560891 -0.00719785620852 0.0173550114772) : omega : 	0.0212816150956 : d : 	(-0.446238195428 -0.330952801406 0.831469612303)
	I106 : dAve : 	(-0.0103639657696 -0.00621192202375 0.0173550114772) : omega : 	0.0212816150956 : d : 	(-0.476528483725 -0.285620181387 0.831469612303)
	I107 : dAve : 	(-0.0109229352743 -0.00516616363411 0.0173550114772) : omega : 	0.0212816150956 : d : 	(-0.502229542228 -0.237536882886 0.831469612303)
	I108 : dAve : 	(-0.0113767109413 -0.00407065226456 0.0173550114772) : omega : 	0.0212816150956 : d : 	(-0.523093855692 -0.187165974351 0.831469612303)
	I109 : dAve : 	(-0.0117209226628 -0.00293593828845 0.0173550114772) : omega : 	0.0212816150956 : d : 	(-0.538920489374 -0.134992555168 0.831469612303)
	I110 : dAve : 	(-0.0119522554918 -0.00177294962168 0.0173550114772) : omega : 	0.0212816150956 : d : 	(-0.549557024139 -0.0815190838842 0.831469612303)
	I111 : dAve : 	(-0.0120684815666 -0.000592886480867 0.0173550114772) : omega : 	0.0212816150956 : d : 	(-0.554901024343 -0.0272605392598 0.831469612303)
	I112 : dAve : 	(-0.0120684815666 0.000592886480867 0.0173550114772) : omega : 	0.0212816150956 : d : 	(-0.554901024343 0.0272605392598 0.831469612303)
	I113 : dAve : 	(-0.0119522554918 0.00177294962168 0.0173550114772) : omega : 	0.0212816150956 : d : 	(-0.549557024139 0.0815190838842 0.831469612303)
	I114 : dAve : 	(-0.0117209226628 0.00293593828845 0.0173550114772) : omega : 	0.0212816150956 : d : 	(-0.538920489374 0.134992555168 0.831469612303)
	I115 : dAve : 	(-0.0113767109413 0.00407065226456 0.0173550114772) : omega : 	0.0212816150956 : d : 	(-0.523093855692 0.187165974351 0.831469612303)
	I116 : dAve : 	(-0.0109229352743 0.00516616363411 0.0173550114772) : omega : 	0.0212816150956 : d : 	(-0.502229542228 0.237536882886 0.831469612303)
	I117 : dAve : 	(-0.0103639657696 0.00621192202375 0.0173550114772) : omega : 	0.0212816150956 : d : 	(-0.476528483725 0.285620181387 0.831469612303)
	I118 : dAve : 	(-0.00970518560891 0.00719785620852 0.0173550114772) : omega : 	0.0212816150956 : d : 	(-0.446238195428 0.330952801406 0.831469612303)
	I119 : dAve : 	(-0.00895293920544 0.00811447110325 0.0173550114772) : omega : 	0.0212816150956 : d : 	(-0.41165038937 0.373098165031 0.831469612303)
	I120 : dAve : 	(-0.00811447110325 0.00895293920544 0.0173550114772) : omega : 	0.0212816150956 : d : 	(-0.373098165031 0.41165038937 0.831469612303)
	I121 : dAve : 	(-0.00719785620852 0.00970518560891 0.0173550114772) : omega : 	0.0212816150956 : d : 	(-0.330952801406 0.446238195428 0.831469612303)
	I122 : dAve : 	(-0.00621192202375 0.0103639657696 0.0173550114772) : omega : 	0.0212816150956 : d : 	(-0.285620181387 0.476528483725 0.831469612303)
	I123 : dAve : 	(-0.00516616363411 0.0109229352743 0.0173550114772) : omega : 	0.0212816150956 : d : 	(-0.237536882886 0.502229542228 0.831469612303)
	I124 : dAve : 	(-0.00407065226456 0.0113767109413 0.0173550114772) : omega : 	0.0212816150956 : d : 	(-0.187165974351 0.523093855692 0.831469612303)
	I125 : dAve : 	(-0.00293593828845 0.0117209226628 0.0173550114772) : omega : 	0.0212816150956 : d : 	(-0.134992555168 0.538920489374 0.831469612303)
	I126 : dAve : 	(-0.00177294962168 0.0119522554918 0.0173550114772) : omega : 	0.0212816150956 : d : 	(-0.0815190838842 0.549557024139 0.831469612303)
	I127 : dAve : 	(-0.000592886480867 0.0120684815666 0.0173550114772) : omega : 	0.0212816150956 : d : 	(-0.0272605392598 0.554901024343 0.831469612303)
	I128 : dAve : 	(0.00129806693309 0.0264227594316 0.0173550114772) : omega : 	0.031850187791 : d : 	(0.0407982801496 0.83046807074 0.55557023302)
	I129 : dAve : 	(0.00388169970511 0.0261682938141 0.0173550114772) : omega : 	0.031850187791 : d : 	(0.122001930708 0.822470209239 0.55557023302)
	I130 : dAve : 	(0.00642794958701 0.0256618132222 0.0173550114772) : omega : 	0.031850187791 : d : 	(0.202030635981 0.806551510015 0.55557023302)
	I131 : dAve : 	(0.00891229480052 0.0249081953407 0.0173550114772) : omega : 	0.031850187791 : d : 	(0.280113675789 0.782865278843 0.55557023302)
	I132 : dAve : 	(0.0113108097431 0.0239146979219 0.0173550114772) : omega : 	0.031850187791 : d : 	(0.355499067772 0.751639627079 0.55557023302)
	I133 : dAve : 	(0.0136003954048 0.022690888889 0.0173550114772) : omega : 	0.031850187791 : d : 	(0.427460809398 0.713175274818 0.55557023302)
	I134 : dAve : 	(0.015759001824 0.021248554192 0.0173550114772) : omega : 	0.031850187791 : d : 	(0.495305869755 0.667842654799 0.55557023302)
	I135 : dAve : 	(0.0177658404409 0.0196015843026 0.0173550114772) : omega : 	0.031850187791 : d : 	(0.558380863825 0.616078344934 0.55557023302)
	I136 : dAve : 	(0.0196015843026 0.0177658404409 0.0173550114772) : omega : 	0.031850187791 : d : 	(0.616078344934 0.558380863825 0.55557023302)
	I137 : dAve : 	(0.021248554192 0.015759001824 0.0173550114772) : omega : 	0.031850187791 : d : 	(0.667842654799 0.495305869755 0.55557023302)
	I138 : dAve : 	(0.022690888889 0.0136003954048 0.0173550114772) : omega : 	0.031850187791 : d : 	(0.713175274818 0.427460809398 0.55557023302)
	I139 : dAve : 	(0.0239146979219 0.0113108097431 0.0173550114772) : omega : 	0.031850187791 : d : 	(0.751639627079 0.355499067772 0.55557023302)
	I140 : dAve : 	(0.0249081953407 0.00891229480052 0.0173550114772) : omega : 	0.031850187791 : d : 	(0.782865278843 0.280113675789 0.55557023302)
	I141 : dAve : 	(0.0256618132222 0.00642794958701 0.0173550114772) : omega : 	0.031850187791 : d : 	(0.806551510015 0.202030635981 0.55557023302)
	I142 : dAve : 	(0.0261682938141 0.00388169970511 0.0173550114772) : omega : 	0.031850187791 : d : 	(0.822470209239 0.122001930708 0.55557023302)
	I143 : dAve : 	(0.0264227594316 0.00129806693309 0.0173550114772) : omega : 	0.031850187791 : d : 	(0.83046807074 0.0407982801496 0.55557023302)
	I144 : dAve : 	(0.0264227594316 -0.00129806693309 0.0173550114772) : omega : 	0.031850187791 : d : 	(0.83046807074 -0.0407982801496 0.55557023302)
	I145 : dAve : 	(0.0261682938141 -0.00388169970511 0.0173550114772) : omega : 	0.031850187791 : d : 	(0.822470209239 -0.122001930708 0.55557023302)
	I146 : dAve : 	(0.0256618132222 -0.00642794958701 0.0173550114772) : omega : 	0.031850187791 : d : 	(0.806551510015 -0.202030635981 0.55557023302)
	I147 : dAve : 	(0.0249081953407 -0.00891229480052 0.0173550114772) : omega : 	0.031850187791 : d : 	(0.782865278843 -0.280113675789 0.55557023302)
	I148 : dAve : 	(0.0239146979219 -0.0113108097431 0.0173550114772) : omega : 	0.031850187791 : d : 	(0.751639627079 -0.355499067772 0.55557023302)
	I149 : dAve : 	(0.022690888889 -0.0136003954048 0.0173550114772) : omega : 	0.031850187791 : d : 	(0.713175274818 -0.427460809398 0.55557023302)
	I150 : dAve : 	(0.021248554192 -0.015759001824 0.0173550114772) : omega : 	0.031850187791 : d : 	(0.667842654799 -0.495305869755 0.55557023302)
	I151 : dAve : 	(0.0196015843026 -0.0177658404409 0.0173550114772) : omega : 	0.031850187791 : d : 	(0.616078344934 -0.558380863825 0.55557023302)
	I152 : dAve : 	(0.0177658404409 -0.0196015843026 0.0173550114772) : omega : 	0.031850187791 : d : 	(0.558380863825 -0.616078344934 0.55557023302)
	I153 : dAve : 	(0.015759001824 -0.021248554192 0.0173550114772) : omega : 	0.031850187791 : d : 	(0.495305869755 -0.667842654799 0.55557023302)
	I154 : dAve : 	(0.0136003954048 -0.022690888889 0.0173550114772) : omega : 	0.031850187791 : d : 	(0.427460809398 -0.713175274818 0.55557023302)
	I155 : dAve : 	(0.0113108097431 -0.0239146979219 0.0173550114772) : omega : 	0.031850187791 : d : 	(0.355499067772 -0.751639627079 0.55557023302)
	I156 : dAve : 	(0.00891229480052 -0.0249081953407 0.0173550114772) : omega : 	0.031850187791 : d : 	(0.280113675789 -0.782865278843 0.55557023302)
	I157 : dAve : 	(0.00642794958701 -0.0256618132222 0.0173550114772) : omega : 	0.031850187791 : d : 	(0.202030635981 -0.806551510015 0.55557023302)
	I158 : dAve : 	(0.00388169970511 -0.0261682938141 0.0173550114772) : omega : 	0.031850187791 : d : 	(0.122001930708 -0.822470209239 0.55557023302)
	I159 : dAve : 	(0.00129806693309 -0.0264227594316 0.0173550114772) : omega : 	0.031850187791 : d : 	(0.0407982801496 -0.83046807074 0.55557023302)
	I160 : dAve : 	(-0.00129806693309 -0.0264227594316 0.0173550114772) : omega : 	0.031850187791 : d : 	(-0.0407982801496 -0.83046807074 0.55557023302)
	I161 : dAve : 	(-0.00388169970511 -0.0261682938141 0.0173550114772) : omega : 	0.031850187791 : d : 	(-0.122001930708 -0.822470209239 0.55557023302)
	I162 : dAve : 	(-0.00642794958701 -0.0256618132222 0.0173550114772) : omega : 	0.031850187791 : d : 	(-0.202030635981 -0.806551510015 0.55557023302)
	I163 : dAve : 	(-0.00891229480052 -0.0249081953407 0.0173550114772) : omega : 	0.031850187791 : d : 	(-0.280113675789 -0.782865278843 0.55557023302)
	I164 : dAve : 	(-0.0113108097431 -0.0239146979219 0.0173550114772) : omega : 	0.031850187791 : d : 	(-0.355499067772 -0.751639627079 0.55557023302)
	I165 : dAve : 	(-0.0136003954048 -0.022690888889 0.0173550114772) : omega : 	0.031850187791 : d : 	(-0.427460809398 -0.713175274818 0.55557023302)
	I166 : dAve : 	(-0.015759001824 -0.021248554192 0.0173550114772) : omega : 	0.031850187791 : d : 	(-0.495305869755 -0.667842654799 0.55557023302)
	I167 : dAve : 	(-0.0177658404409 -0.0196015843026 0.0173550114772) : omega : 	0.031850187791 : d : 	(-0.558380863825 -0.616078344934 0.55557023302)
	I168 : dAve : 	(-0.0196015843026 -0.0177658404409 0.0173550114772) : omega : 	0.031850187791 : d : 	(-0.616078344934 -0.558380863825 0.55557023302)
	I169 : dAve : 	(-0.021248554192 -0.015759001824 0.0173550114772) : omega : 	0.031850187791 : d : 	(-0.667842654799 -0.495305869755 0.55557023302)
	I170 : dAve : 	(-0.022690888889 -0.0136003954048 0.0173550114772) : omega : 	0.031850187791 : d : 	(-0.713175274818 -0.427460809398 0.55557023302)
	I171 : dAve : 	(-0.0239146979219 -0.0113108097431 0.0173550114772) : omega : 	0.031850187791 : d : 	(-0.751639627079 -0.355499067772 0.55557023302)
	I172 : dAve : 	(-0.0249081953407 -0.00891229480052 0.0173550114772) : omega : 	0.031850187791 : d : 	(-0.782865278843 -0.280113675789 0.55557023302)
	I173 : dAve : 	(-0.0256618132222 -0.00642794958701 0.0173550114772) : omega : 	0.031850187791 : d : 	(-0.806551510015 -0.202030635981 0.55557023302)
	I174 : dAve : 	(-0.0261682938141 -0.00388169970511 0.0173550114772) : omega : 	0.031850187791 : d : 	(-0.822470209239 -0.122001930708 0.55557023302)
	I175 : dAve : 	(-0.0264227594316 -0.00129806693309 0.0173550114772) : omega : 	0.031850187791 : d : 	(-0.83046807074 -0.0407982801496 0.55557023302)
	I176 : dAve : 	(-0.0264227594316 0.00129806693309 0.0173550114772) : omega : 	0.031850187791 : d : 	(-0.83046807074 0.0407982801496 0.55557023302)
	I177 : dAve : 	(-0.0261682938141 0.00388169970511 0.0173550114772) : omega : 	0.031850187791 : d : 	(-0.822470209239 0.122001930708 0.55557023302)
	I178 : dAve : 	(-0.0256618132222 0.00642794958701 0.0173550114772) : omega : 	0.031850187791 : d : 	(-0.806551510015 0.202030635981 0.55557023302)
	I179 : dAve : 	(-0.0249081953407 0.00891229480052 0.0173550114772) : omega : 	0.031850187791 : d : 	(-0.782865278843 0.280113675789 0.55557023302)
	I180 : dAve : 	(-0.0239146979219 0.0113108097431 0.0173550114772) : omega : 	0.031850187791 : d : 	(-0.751639627079 0.355499067772 0.55557023302)
	I181 : dAve : 	(-0.022690888889 0.0136003954048 0.0173550114772) : omega : 	0.031850187791 : d : 	(-0.713175274818 0.427460809398 0.55557023302)
	I182 : dAve : 	(-0.021248554192 0.015759001824 0.0173550114772) : omega : 	0.031850187791 : d : 	(-0.667842654799 0.495305869755 0.55557023302)
	I183 : dAve : 	(-0.0196015843026 0.0177658404409 0.0173550114772) : omega : 	0.031850187791 : d : 	(-0.616078344934 0.558380863825 0.55557023302)
	I184 : dAve : 	(-0.0177658404409 0.0196015843026 0.0173550114772) : omega : 	0.031850187791 : d : 	(-0.558380863825 0.616078344934 0.55557023302)
	I185 : dAve : 	(-0.015759001824 0.021248554192 0.0173550114772) : omega : 	0.031850187791 : d : 	(-0.495305869755 0.667842654799 0.55557023302)
	I186 : dAve : 	(-0.0136003954048 0.022690888889 0.0173550114772) : omega : 	0.031850187791 : d : 	(-0.427460809398 0.713175274818 0.55557023302)
	I187 : dAve : 	(-0.0113108097431 0.0239146979219 0.0173550114772) : omega : 	0.031850187791 : d : 	(-0.355499067772 0.751639627079 0.55557023302)
	I188 : dAve : 	(-0.00891229480052 0.0249081953407 0.0173550114772) : omega : 	0.031850187791 : d : 	(-0.280113675789 0.782865278843 0.55557023302)
	I189 : dAve : 	(-0.00642794958701 0.0256618132222 0.0173550114772) : omega : 	0.031850187791 : d : 	(-0.202030635981 0.806551510015 0.55557023302)
	I190 : dAve : 	(-0.00388169970511 0.0261682938141 0.0173550114772) : omega : 	0.031850187791 : d : 	(-0.122001930708 0.822470209239 0.55557023302)
	I191 : dAve : 	(-0.00129806693309 0.0264227594316 0.0173550114772) : omega : 	0.031850187791 : d : 	(-0.0407982801496 0.83046807074 0.55557023302)
	I192 : dAve : 	(0.00179670481282 0.036572766649 0.00718868112899) : omega : 	0.0375698581178 : d : 	(0.048124852724 0.97960388158 0.195090322016)
	I193 : dAve : 	(0.00537281118893 0.0362205509134 0.00718868112899) : omega : 	0.0375698581178 : d : 	(0.143911089532 0.970169760694 0.195090322016)
	I194 : dAve : 	(0.00889717445621 0.0355195114724 0.00718868112899) : omega : 	0.0375698581178 : d : 	(0.238311383879 0.951392374664 0.195090322016)
	I195 : dAve : 	(0.0123358530698 0.034476399719 0.00718868112899) : omega : 	0.0375698581178 : d : 	(0.330416609324 0.923452559983 0.195090322016)
	I196 : dAve : 	(0.0156557306748 0.0331012613896 0.00718868112899) : omega : 	0.0375698581178 : d : 	(0.419339742198 0.886619392338 0.195090322016)
	I197 : dAve : 	(0.0188248350352 0.031407339818 0.00718868112899) : omega : 	0.0375698581178 : d : 	(0.50422440412 0.841247595269 0.195090322016)
	I198 : dAve : 	(0.0218126459435 0.0294109483949 0.00718868112899) : omega : 	0.0375698581178 : d : 	(0.584253109393 0.787774123985 0.195090322016)
	I199 : dAve : 	(0.0245903891473 0.0271313134612 0.00718868112899) : omega : 	0.0375698581178 : d : 	(0.658655137837 0.726713957246 0.195090322016)
	I200 : dAve : 	(0.0271313134612 0.0245903891473 0.00718868112899) : omega : 	0.0375698581178 : d : 	(0.726713957246 0.658655137837 0.195090322016)
	I201 : dAve : 	(0.0294109483949 0.0218126459435 0.00718868112899) : omega : 	0.0375698581178 : d : 	(0.787774123985 0.584253109393 0.195090322016)
	I202 : dAve : 	(0.031407339818 0.0188248350352 0.00718868112899) : omega : 	0.0375698581178 : d : 	(0.841247595269 0.50422440412 0.195090322016)
	I203 : dAve : 	(0.0331012613896 0.0156557306748 0.00718868112899) : omega : 	0.0375698581178 : d : 	(0.886619392338 0.419339742198 0.195090322016)
	I204 : dAve : 	(0.034476399719 0.0123358530698 0.00718868112899) : omega : 	0.0375698581178 : d : 	(0.923452559983 0.330416609324 0.195090322016)
	I205 : dAve : 	(0.0355195114724 0.00889717445621 0.00718868112899) : omega : 	0.0375698581178 : d : 	(0.951392374664 0.238311383879 0.195090322016)
	I206 : dAve : 	(0.0362205509134 0.00537281118893 0.00718868112899) : omega : 	0.0375698581178 : d : 	(0.970169760694 0.143911089532 0.195090322016)
	I207 : dAve : 	(0.036572766649 0.00179670481282 0.00718868112899) : omega : 	0.0375698581178 : d : 	(0.97960388158 0.048124852724 0.195090322016)
	I208 : dAve : 	(0.036572766649 -0.00179670481282 0.00718868112899) : omega : 	0.0375698581178 : d : 	(0.97960388158 -0.048124852724 0.195090322016)
	I209 : dAve : 	(0.0362205509134 -0.00537281118893 0.00718868112899) : omega : 	0.0375698581178 : d : 	(0.970169760694 -0.143911089532 0.195090322016)
	I210 : dAve : 	(0.0355195114724 -0.00889717445621 0.00718868112899) : omega : 	0.0375698581178 : d : 	(0.951392374664 -0.238311383879 0.195090322016)
	I211 : dAve : 	(0.034476399719 -0.0123358530698 0.00718868112899) : omega : 	0.0375698581178 : d : 	(0.923452559983 -0.330416609324 0.195090322016)
	I212 : dAve : 	(0.0331012613896 -0.0156557306748 0.00718868112899) : omega : 	0.0375698581178 : d : 	(0.886619392338 -0.419339742198 0.195090322016)
	I213 : dAve : 	(0.031407339818 -0.0188248350352 0.00718868112899) : omega : 	0.0375698581178 : d : 	(0.841247595269 -0.50422440412 0.195090322016)
	I214 : dAve : 	(0.0294109483949 -0.0218126459435 0.00718868112899) : omega : 	0.0375698581178 : d : 	(0.787774123985 -0.584253109393 0.195090322016)
	I215 : dAve : 	(0.0271313134612 -0.0245903891473 0.00718868112899) : omega : 	0.0375698581178 : d : 	(0.726713957246 -0.658655137837 0.195090322016)
	I216 : dAve : 	(0.0245903891473 -0.0271313134612 0.00718868112899) : omega : 	0.0375698581178 : d : 	(0.658655137837 -0.726713957246 0.195090322016)
	I217 : dAve : 	(0.0218126459435 -0.0294109483949 0.00718868112899) : omega : 	0.0375698581178 : d : 	(0.584253109393 -0.787774123985 0.195090322016)
	I218 : dAve : 	(0.0188248350352 -0.031407339818 0.00718868112899) : omega : 	0.0375698581178 : d : 	(0.50422440412 -0.841247595269 0.195090322016)
	I219 : dAve : 	(0.0156557306748 -0.0331012613896 0.00718868112899) : omega : 	0.0375698581178 : d : 	(0.419339742198 -0.886619392338 0.195090322016)
	I220 : dAve : 	(0.0123358530698 -0.034476399719 0.00718868112899) : omega : 	0.0375698581178 : d : 	(0.330416609324 -0.923452559983 0.195090322016)
	I221 : dAve : 	(0.00889717445621 -0.0355195114724 0.00718868112899) : omega : 	0.0375698581178 : d : 	(0.238311383879 -0.951392374664 0.195090322016)
	I222 : dAve : 	(0.00537281118893 -0.0362205509134 0.00718868112899) : omega : 	0.0375698581178 : d : 	(0.143911089532 -0.970169760694 0.195090322016)
	I223 : dAve : 	(0.00179670481282 -0.036572766649 0.00718868112899) : omega : 	0.0375698581178 : d : 	(0.048124852724 -0.97960388158 0.195090322016)
	I224 : dAve : 	(-0.00179670481282 -0.036572766649 0.00718868112899) : omega : 	0.0375698581178 : d : 	(-0.048124852724 -0.97960388158 0.195090322016)
	I225 : dAve : 	(-0.00537281118893 -0.0362205509134 0.00718868112899) : omega : 	0.0375698581178 : d : 	(-0.143911089532 -0.970169760694 0.195090322016)
	I226 : dAve : 	(-0.00889717445621 -0.0355195114724 0.00718868112899) : omega : 	0.0375698581178 : d : 	(-0.238311383879 -0.951392374664 0.195090322016)
	I227 : dAve : 	(-0.0123358530698 -0.034476399719 0.00718868112899) : omega : 	0.0375698581178 : d : 	(-0.330416609324 -0.923452559983 0.195090322016)
	I228 : dAve : 	(-0.0156557306748 -0.0331012613896 0.00718868112899) : omega : 	0.0375698581178 : d : 	(-0.419339742198 -0.886619392338 0.195090322016)
	I229 : dAve : 	(-0.0188248350352 -0.031407339818 0.00718868112899) : omega : 	0.0375698581178 : d : 	(-0.50422440412 -0.841247595269 0.195090322016)
	I230 : dAve : 	(-0.0218126459435 -0.0294109483949 0.00718868112899) : omega : 	0.0375698581178 : d : 	(-0.584253109393 -0.787774123985 0.195090322016)
	I231 : dAve : 	(-0.0245903891473 -0.0271313134612 0.00718868112899) : omega : 	0.0375698581178 : d : 	(-0.658655137837 -0.726713957246 0.195090322016)
	I232 : dAve : 	(-0.0271313134612 -0.0245903891473 0.00718868112899) : omega : 	0.0375698581178 : d : 	(-0.726713957246 -0.658655137837 0.195090322016)
	I233 : dAve : 	(-0.0294109483949 -0.0218126459435 0.00718868112899) : omega : 	0.0375698581178 : d : 	(-0.787774123985 -0.584253109393 0.195090322016)
	I234 : dAve : 	(-0.031407339818 -0.0188248350352 0.00718868112899) : omega : 	0.0375698581178 : d : 	(-0.841247595269 -0.50422440412 0.195090322016)
	I235 : dAve : 	(-0.0331012613896 -0.0156557306748 0.00718868112899) : omega : 	0.0375698581178 : d : 	(-0.886619392338 -0.419339742198 0.195090322016)
	I236 : dAve : 	(-0.034476399719 -0.0123358530698 0.00718868112899) : omega : 	0.0375698581178 : d : 	(-0.923452559983 -0.330416609324 0.195090322016)
	I237 : dAve : 	(-0.0355195114724 -0.00889717445621 0.00718868112899) : omega : 	0.0375698581178 : d : 	(-0.951392374664 -0.238311383879 0.195090322016)
	I238 : dAve : 	(-0.0362205509134 -0.00537281118893 0.00718868112899) : omega : 	0.0375698581178 : d : 	(-0.970169760694 -0.143911089532 0.195090322016)
	I239 : dAve : 	(-0.036572766649 -0.00179670481282 0.00718868112899) : omega : 	0.0375698581178 : d : 	(-0.97960388158 -0.048124852724 0.195090322016)
	I240 : dAve : 	(-0.036572766649 0.00179670481282 0.00718868112899) : omega : 	0.0375698581178 : d : 	(-0.97960388158 0.048124852724 0.195090322016)
	I241 : dAve : 	(-0.0362205509134 0.00537281118893 0.00718868112899) : omega : 	0.0375698581178 : d : 	(-0.970169760694 0.143911089532 0.195090322016)
	I242 : dAve : 	(-0.0355195114724 0.00889717445621 0.00718868112899) : omega : 	0.0375698581178 : d : 	(-0.951392374664 0.238311383879 0.195090322016)
	I243 : dAve : 	(-0.034476399719 0.0123358530698 0.00718868112899) : omega : 	0.0375698581178 : d : 	(-0.923452559983 0.330416609324 0.195090322016)
	I244 : dAve : 	(-0.0331012613896 0.0156557306748 0.00718868112899) : omega : 	0.0375698581178 : d : 	(-0.886619392338 0.419339742198 0.195090322016)
	I245 : dAve : 	(-0.031407339818 0.0188248350352 0.00718868112899) : omega : 	0.0375698581178 : d : 	(-0.841247595269 0.50422440412 0.195090322016)
	I246 : dAve : 	(-0.0294109483949 0.0218126459435 0.00718868112899) : omega : 	0.0375698581178 : d : 	(-0.787774123985 0.584253109393 0.195090322016)
	I247 : dAve : 	(-0.0271313134612 0.0245903891473 0.00718868112899) : omega : 	0.0375698581178 : d : 	(-0.726713957246 0.658655137837 0.195090322016)
	I248 : dAve : 	(-0.0245903891473 0.0271313134612 0.00718868112899) : omega : 	0.0375698581178 : d : 	(-0.658655137837 0.726713957246 0.195090322016)
	I249 : dAve : 	(-0.0218126459435 0.0294109483949 0.00718868112899) : omega : 	0.0375698581178 : d : 	(-0.584253109393 0.787774123985 0.195090322016)
	I250 : dAve : 	(-0.0188248350352 0.031407339818 0.00718868112899) : omega : 	0.0375698581178 : d : 	(-0.50422440412 0.841247595269 0.195090322016)
	I251 : dAve : 	(-0.0156557306748 0.0331012613896 0.00718868112899) : omega : 	0.0375698581178 : d : 	(-0.419339742198 0.886619392338 0.195090322016)
	I252 : dAve : 	(-0.0123358530698 0.034476399719 0.00718868112899) : omega : 	0.0375698581178 : d : 	(-0.330416609324 0.923452559983 0.195090322016)
	I253 : dAve : 	(-0.00889717445621 0.0355195114724 0.00718868112899) : omega : 	0.0375698581178 : d : 	(-0.238311383879 0.951392374664 0.195090322016)
	I254 : dAve : 	(-0.00537281118893 0.0362205509134 0.00718868112899) : omega : 	0.0375698581178 : d : 	(-0.143911089532 0.970169760694 0.195090322016)
	I255 : dAve : 	(-0.00179670481282 0.036572766649 0.00718868112899) : omega : 	0.0375698581178 : d : 	(-0.048124852724 0.97960388158 0.195090322016)
	I256 : dAve : 	(0.00179670481282 0.036572766649 -0.00718868112899) : omega : 	0.0375698581178 : d : 	(0.048124852724 0.97960388158 -0.195090322016)
	I257 : dAve : 	(0.00537281118893 0.0362205509134 -0.00718868112899) : omega : 	0.0375698581178 : d : 	(0.143911089532 0.970169760694 -0.195090322016)
	I258 : dAve : 	(0.00889717445621 0.0355195114724 -0.00718868112899) : omega : 	0.0375698581178 : d : 	(0.238311383879 0.951392374664 -0.195090322016)
	I259 : dAve : 	(0.0123358530698 0.034476399719 -0.00718868112899) : omega : 	0.0375698581178 : d : 	(0.330416609324 0.923452559983 -0.195090322016)
	I260 : dAve : 	(0.0156557306748 0.0331012613896 -0.00718868112899) : omega : 	0.0375698581178 : d : 	(0.419339742198 0.886619392338 -0.195090322016)
	I261 : dAve : 	(0.0188248350352 0.031407339818 -0.00718868112899) : omega : 	0.0375698581178 : d : 	(0.50422440412 0.841247595269 -0.195090322016)
	I262 : dAve : 	(0.0218126459435 0.0294109483949 -0.00718868112899) : omega : 	0.0375698581178 : d : 	(0.584253109393 0.787774123985 -0.195090322016)
	I263 : dAve : 	(0.0245903891473 0.0271313134612 -0.00718868112899) : omega : 	0.0375698581178 : d : 	(0.658655137837 0.726713957246 -0.195090322016)
	I264 : dAve : 	(0.0271313134612 0.0245903891473 -0.00718868112899) : omega : 	0.0375698581178 : d : 	(0.726713957246 0.658655137837 -0.195090322016)
	I265 : dAve : 	(0.0294109483949 0.0218126459435 -0.00718868112899) : omega : 	0.0375698581178 : d : 	(0.787774123985 0.584253109393 -0.195090322016)
	I266 : dAve : 	(0.031407339818 0.0188248350352 -0.00718868112899) : omega : 	0.0375698581178 : d : 	(0.841247595269 0.50422440412 -0.195090322016)
	I267 : dAve : 	(0.0331012613896 0.0156557306748 -0.00718868112899) : omega : 	0.0375698581178 : d : 	(0.886619392338 0.419339742198 -0.195090322016)
	I268 : dAve : 	(0.034476399719 0.0123358530698 -0.00718868112899) : omega : 	0.0375698581178 : d : 	(0.923452559983 0.330416609324 -0.195090322016)
	I269 : dAve : 	(0.0355195114724 0.00889717445621 -0.00718868112899) : omega : 	0.0375698581178 : d : 	(0.951392374664 0.238311383879 -0.195090322016)
	I270 : dAve : 	(0.0362205509134 0.00537281118893 -0.00718868112899) : omega : 	0.0375698581178 : d : 	(0.970169760694 0.143911089532 -0.195090322016)
	I271 : dAve : 	(0.036572766649 0.00179670481282 -0.00718868112899) : omega : 	0.0375698581178 : d : 	(0.97960388158 0.048124852724 -0.195090322016)
	I272 : dAve : 	(0.036572766649 -0.00179670481282 -0.00718868112899) : omega : 	0.0375698581178 : d : 	(0.97960388158 -0.048124852724 -0.195090322016)
	I273 : dAve : 	(0.0362205509134 -0.00537281118893 -0.00718868112899) : omega : 	0.0375698581178 : d : 	(0.970169760694 -0.143911089532 -0.195090322016)
	I274 : dAve : 	(0.0355195114724 -0.00889717445621 -0.00718868112899) : omega : 	0.0375698581178 : d : 	(0.951392374664 -0.238311383879 -0.195090322016)
	I275 : dAve : 	(0.034476399719 -0.0123358530698 -0.00718868112899) : omega : 	0.0375698581178 : d : 	(0.923452559983 -0.330416609324 -0.195090322016)
	I276 : dAve : 	(0.0331012613896 -0.0156557306748 -0.00718868112899) : omega : 	0.0375698581178 : d : 	(0.886619392338 -0.419339742198 -0.195090322016)
	I277 : dAve : 	(0.031407339818 -0.0188248350352 -0.00718868112899) : omega : 	0.0375698581178 : d : 	(0.841247595269 -0.50422440412 -0.195090322016)
	I278 : dAve : 	(0.0294109483949 -0.0218126459435 -0.00718868112899) : omega : 	0.0375698581178 : d : 	(0.787774123985 -0.584253109393 -0.195090322016)
	I279 : dAve : 	(0.0271313134612 -0.0245903891473 -0.00718868112899) : omega : 	0.0375698581178 : d : 	(0.726713957246 -0.658655137837 -0.195090322016)
	I280 : dAve : 	(0.0245903891473 -0.0271313134612 -0.00718868112899) : omega : 	0.0375698581178 : d : 	(0.658655137837 -0.726713957246 -0.195090322016)
	I281 : dAve : 	(0.0218126459435 -0.0294109483949 -0.00718868112899) : omega : 	0.0375698581178 : d : 	(0.584253109393 -0.787774123985 -0.195090322016)
	I282 : dAve : 	(0.0188248350352 -0.031407339818 -0.00718868112899) : omega : 	0.0375698581178 : d : 	(0.50422440412 -0.841247595269 -0.195090322016)
	I283 : dAve : 	(0.0156557306748 -0.0331012613896 -0.00718868112899) : omega : 	0.0375698581178 : d : 	(0.419339742198 -0.886619392338 -0.195090322016)
	I284 : dAve : 	(0.0123358530698 -0.034476399719 -0.00718868112899) : omega : 	0.0375698581178 : d : 	(0.330416609324 -0.923452559983 -0.195090322016)
	I285 : dAve : 	(0.00889717445621 -0.0355195114724 -0.00718868112899) : omega : 	0.0375698581178 : d : 	(0.238311383879 -0.951392374664 -0.195090322016)
	I286 : dAve : 	(0.00537281118893 -0.0362205509134 -0.00718868112899) : omega : 	0.0375698581178 : d : 	(0.143911089532 -0.970169760694 -0.195090322016)
	I287 : dAve : 	(0.00179670481282 -0.036572766649 -0.00718868112899) : omega : 	0.0375698581178 : d : 	(0.048124852724 -0.97960388158 -0.195090322016)
	I288 : dAve : 	(-0.00179670481282 -0.036572766649 -0.00718868112899) : omega : 	0.0375698581178 : d : 	(-0.048124852724 -0.97960388158 -0.195090322016)
	I289 : dAve : 	(-0.00537281118893 -0.0362205509134 -0.00718868112899) : omega : 	0.0375698581178 : d : 	(-0.143911089532 -0.970169760694 -0.195090322016)
	I290 : dAve : 	(-0.00889717445621 -0.0355195114724 -0.00718868112899) : omega : 	0.0375698581178 : d : 	(-0.238311383879 -0.951392374664 -0.195090322016)
	I291 : dAve : 	(-0.0123358530698 -0.034476399719 -0.00718868112899) : omega : 	0.0375698581178 : d : 	(-0.330416609324 -0.923452559983 -0.195090322016)
	I292 : dAve : 	(-0.0156557306748 -0.0331012613896 -0.00718868112899) : omega : 	0.0375698581178 : d : 	(-0.419339742198 -0.886619392338 -0.195090322016)
	I293 : dAve : 	(-0.0188248350352 -0.031407339818 -0.00718868112899) : omega : 	0.0375698581178 : d : 	(-0.50422440412 -0.841247595269 -0.195090322016)
	I294 : dAve : 	(-0.0218126459435 -0.0294109483949 -0.00718868112899) : omega : 	0.0375698581178 : d : 	(-0.584253109393 -0.787774123985 -0.195090322016)
	I295 : dAve : 	(-0.0245903891473 -0.0271313134612 -0.00718868112899) : omega : 	0.0375698581178 : d : 	(-0.658655137837 -0.726713957246 -0.195090322016)
	I296 : dAve : 	(-0.0271313134612 -0.0245903891473 -0.00718868112899) : omega : 	0.0375698581178 : d : 	(-0.726713957246 -0.658655137837 -0.195090322016)
	I297 : dAve : 	(-0.0294109483949 -0.0218126459435 -0.00718868112899) : omega : 	0.0375698581178 : d : 	(-0.787774123985 -0.584253109393 -0.195090322016)
	I298 : dAve : 	(-0.031407339818 -0.0188248350352 -0.00718868112899) : omega : 	0.0375698581178 : d : 	(-0.841247595269 -0.50422440412 -0.195090322016)
	I299 : dAve : 	(-0.0331012613896 -0.0156557306748 -0.00718868112899) : omega : 	0.0375698581178 : d : 	(-0.886619392338 -0.419339742198 -0.195090322016)
	I300 : dAve : 	(-0.034476399719 -0.0123358530698 -0.00718868112899) : omega : 	0.0375698581178 : d : 	(-0.923452559983 -0.330416609324 -0.195090322016)
	I301 : dAve : 	(-0.0355195114724 -0.00889717445621 -0.00718868112899) : omega : 	0.0375698581178 : d : 	(-0.951392374664 -0.238311383879 -0.195090322016)
	I302 : dAve : 	(-0.0362205509134 -0.00537281118893 -0.00718868112899) : omega : 	0.0375698581178 : d : 	(-0.970169760694 -0.143911089532 -0.195090322016)
	I303 : dAve : 	(-0.036572766649 -0.00179670481282 -0.00718868112899) : omega : 	0.0375698581178 : d : 	(-0.97960388158 -0.048124852724 -0.195090322016)
	I304 : dAve : 	(-0.036572766649 0.00179670481282 -0.00718868112899) : omega : 	0.0375698581178 : d : 	(-0.97960388158 0.048124852724 -0.195090322016)
	I305 : dAve : 	(-0.0362205509134 0.00537281118893 -0.00718868112899) : omega : 	0.0375698581178 : d : 	(-0.970169760694 0.143911089532 -0.195090322016)
	I306 : dAve : 	(-0.0355195114724 0.00889717445621 -0.00718868112899) : omega : 	0.0375698581178 : d : 	(-0.951392374664 0.238311383879 -0.195090322016)
	I307 : dAve : 	(-0.034476399719 0.0123358530698 -0.00718868112899) : omega : 	0.0375698581178 : d : 	(-0.923452559983 0.330416609324 -0.195090322016)
	I308 : dAve : 	(-0.0331012613896 0.0156557306748 -0.00718868112899) : omega : 	0.0375698581178 : d : 	(-0.886619392338 0.419339742198 -0.195090322016)
	I309 : dAve : 	(-0.031407339818 0.0188248350352 -0.00718868112899) : omega : 	0.0375698581178 : d : 	(-0.841247595269 0.50422440412 -0.195090322016)
	I310 : dAve : 	(-0.0294109483949 0.0218126459435 -0.00718868112899) : omega : 	0.0375698581178 : d : 	(-0.787774123985 0.584253109393 -0.195090322016)
	I311 : dAve : 	(-0.0271313134612 0.0245903891473 -0.00718868112899) : omega : 	0.0375698581178 : d : 	(-0.726713957246 0.658655137837 -0.195090322016)
	I312 : dAve : 	(-0.0245903891473 0.0271313134612 -0.00718868112899) : omega : 	0.0375698581178 : d : 	(-0.658655137837 0.726713957246 -0.195090322016)
	I313 : dAve : 	(-0.0218126459435 0.0294109483949 -0.00718868112899) : omega : 	0.0375698581178 : d : 	(-0.584253109393 0.787774123985 -0.195090322016)
	I314 : dAve : 	(-0.0188248350352 0.031407339818 -0.00718868112899) : omega : 	0.0375698581178 : d : 	(-0.50422440412 0.841247595269 -0.195090322016)
	I315 : dAve : 	(-0.0156557306748 0.0331012613896 -0.00718868112899) : omega : 	0.0375698581178 : d : 	(-0.419339742198 0.886619392338 -0.195090322016)
	I316 : dAve : 	(-0.0123358530698 0.034476399719 -0.00718868112899) : omega : 	0.0375698581178 : d : 	(-0.330416609324 0.923452559983 -0.195090322016)
	I317 : dAve : 	(-0.00889717445621 0.0355195114724 -0.00718868112899) : omega : 	0.0375698581178 : d : 	(-0.238311383879 0.951392374664 -0.195090322016)
	I318 : dAve : 	(-0.00537281118893 0.0362205509134 -0.00718868112899) : omega : 	0.0375698581178 : d : 	(-0.143911089532 0.970169760694 -0.195090322016)
	I319 : dAve : 	(-0.00179670481282 0.036572766649 -0.00718868112899) : omega : 	0.0375698581178 : d : 	(-0.048124852724 0.97960388158 -0.195090322016)
	I320 : dAve : 	(0.00129806693309 0.0264227594316 -0.0173550114772) : omega : 	0.031850187791 : d : 	(0.0407982801496 0.83046807074 -0.55557023302)
	I321 : dAve : 	(0.00388169970511 0.0261682938141 -0.0173550114772) : omega : 	0.031850187791 : d : 	(0.122001930708 0.822470209239 -0.55557023302)
	I322 : dAve : 	(0.00642794958701 0.0256618132222 -0.0173550114772) : omega : 	0.031850187791 : d : 	(0.202030635981 0.806551510015 -0.55557023302)
	I323 : dAve : 	(0.00891229480052 0.0249081953407 -0.0173550114772) : omega : 	0.031850187791 : d : 	(0.280113675789 0.782865278843 -0.55557023302)
	I324 : dAve : 	(0.0113108097431 0.0239146979219 -0.0173550114772) : omega : 	0.031850187791 : d : 	(0.355499067772 0.751639627079 -0.55557023302)
	I325 : dAve : 	(0.0136003954048 0.022690888889 -0.0173550114772) : omega : 	0.031850187791 : d : 	(0.427460809398 0.713175274818 -0.55557023302)
	I326 : dAve : 	(0.015759001824 0.021248554192 -0.0173550114772) : omega : 	0.031850187791 : d : 	(0.495305869755 0.667842654799 -0.55557023302)
	I327 : dAve : 	(0.0177658404409 0.0196015843026 -0.0173550114772) : omega : 	0.031850187791 : d : 	(0.558380863825 0.616078344934 -0.55557023302)
	I328 : dAve : 	(0.0196015843026 0.0177658404409 -0.0173550114772) : omega : 	0.031850187791 : d : 	(0.616078344934 0.558380863825 -0.55557023302)
	I329 : dAve : 	(0.021248554192 0.015759001824 -0.0173550114772) : omega : 	0.031850187791 : d : 	(0.667842654799 0.495305869755 -0.55557023302)
	I330 : dAve : 	(0.022690888889 0.0136003954048 -0.0173550114772) : omega : 	0.031850187791 : d : 	(0.713175274818 0.427460809398 -0.55557023302)
	I331 : dAve : 	(0.0239146979219 0.0113108097431 -0.0173550114772) : omega : 	0.031850187791 : d : 	(0.751639627079 0.355499067772 -0.55557023302)
	I332 : dAve : 	(0.0249081953407 0.00891229480052 -0.0173550114772) : omega : 	0.031850187791 : d : 	(0.782865278843 0.280113675789 -0.55557023302)
	I333 : dAve : 	(0.0256618132222 0.00642794958701 -0.0173550114772) : omega : 	0.031850187791 : d : 	(0.806551510015 0.202030635981 -0.55557023302)
	I334 : dAve : 	(0.0261682938141 0.00388169970511 -0.0173550114772) : omega : 	0.031850187791 : d : 	(0.822470209239 0.122001930708 -0.55557023302)
	I335 : dAve : 	(0.0264227594316 0.00129806693309 -0.0173550114772) : omega : 	0.031850187791 : d : 	(0.83046807074 0.0407982801496 -0.55557023302)
	I336 : dAve : 	(0.0264227594316 -0.00129806693309 -0.0173550114772) : omega : 	0.031850187791 : d : 	(0.83046807074 -0.0407982801496 -0.55557023302)
	I337 : dAve : 	(0.0261682938141 -0.00388169970511 -0.0173550114772) : omega : 	0.031850187791 : d : 	(0.822470209239 -0.122001930708 -0.55557023302)
	I338 : dAve : 	(0.0256618132222 -0.00642794958701 -0.0173550114772) : omega : 	0.031850187791 : d : 	(0.806551510015 -0.202030635981 -0.55557023302)
	I339 : dAve : 	(0.0249081953407 -0.00891229480052 -0.0173550114772) : omega : 	0.031850187791 : d : 	(0.782865278843 -0.280113675789 -0.55557023302)
	I340 : dAve : 	(0.0239146979219 -0.0113108097431 -0.0173550114772) : omega : 	0.031850187791 : d : 	(0.751639627079 -0.355499067772 -0.55557023302)
	I341 : dAve : 	(0.022690888889 -0.0136003954048 -0.0173550114772) : omega : 	0.031850187791 : d : 	(0.713175274818 -0.427460809398 -0.55557023302)
	I342 : dAve : 	(0.021248554192 -0.015759001824 -0.0173550114772) : omega : 	0.031850187791 : d : 	(0.667842654799 -0.495305869755 -0.55557023302)
	I343 : dAve : 	(0.0196015843026 -0.0177658404409 -0.0173550114772) : omega : 	0.031850187791 : d : 	(0.616078344934 -0.558380863825 -0.55557023302)
	I344 : dAve : 	(0.0177658404409 -0.0196015843026 -0.0173550114772) : omega : 	0.031850187791 : d : 	(0.558380863825 -0.616078344934 -0.55557023302)
	I345 : dAve : 	(0.015759001824 -0.021248554192 -0.0173550114772) : omega : 	0.031850187791 : d : 	(0.495305869755 -0.667842654799 -0.55557023302)
	I346 : dAve : 	(0.0136003954048 -0.022690888889 -0.0173550114772) : omega : 	0.031850187791 : d : 	(0.427460809398 -0.713175274818 -0.55557023302)
	I347 : dAve : 	(0.0113108097431 -0.0239146979219 -0.0173550114772) : omega : 	0.031850187791 : d : 	(0.355499067772 -0.751639627079 -0.55557023302)
	I348 : dAve : 	(0.00891229480052 -0.0249081953407 -0.0173550114772) : omega : 	0.031850187791 : d : 	(0.280113675789 -0.782865278843 -0.55557023302)
	I349 : dAve : 	(0.00642794958701 -0.0256618132222 -0.0173550114772) : omega : 	0.031850187791 : d : 	(0.202030635981 -0.806551510015 -0.55557023302)
	I350 : dAve : 	(0.00388169970511 -0.0261682938141 -0.0173550114772) : omega : 	0.031850187791 : d : 	(0.122001930708 -0.822470209239 -0.55557023302)
	I351 : dAve : 	(0.00129806693309 -0.0264227594316 -0.0173550114772) : omega : 	0.031850187791 : d : 	(0.0407982801496 -0.83046807074 -0.55557023302)
	I352 : dAve : 	(-0.00129806693309 -0.0264227594316 -0.0173550114772) : omega : 	0.031850187791 : d : 	(-0.0407982801496 -0.83046807074 -0.55557023302)
	I353 : dAve : 	(-0.00388169970511 -0.0261682938141 -0.0173550114772) : omega : 	0.031850187791 : d : 	(-0.122001930708 -0.822470209239 -0.55557023302)
	I354 : dAve : 	(-0.00642794958701 -0.0256618132222 -0.0173550114772) : omega : 	0.031850187791 : d : 	(-0.202030635981 -0.806551510015 -0.55557023302)
	I355 : dAve : 	(-0.00891229480052 -0.0249081953407 -0.0173550114772) : omega : 	0.031850187791 : d : 	(-0.280113675789 -0.782865278843 -0.55557023302)
	I356 : dAve : 	(-0.0113108097431 -0.0239146979219 -0.0173550114772) : omega : 	0.031850187791 : d : 	(-0.355499067772 -0.751639627079 -0.55557023302)
	I357 : dAve : 	(-0.0136003954048 -0.022690888889 -0.0173550114772) : omega : 	0.031850187791 : d : 	(-0.427460809398 -0.713175274818 -0.55557023302)
	I358 : dAve : 	(-0.015759001824 -0.021248554192 -0.0173550114772) : omega : 	0.031850187791 : d : 	(-0.495305869755 -0.667842654799 -0.55557023302)
	I359 : dAve : 	(-0.0177658404409 -0.0196015843026 -0.0173550114772) : omega : 	0.031850187791 : d : 	(-0.558380863825 -0.616078344934 -0.55557023302)
	I360 : dAve : 	(-0.0196015843026 -0.0177658404409 -0.0173550114772) : omega : 	0.031850187791 : d : 	(-0.616078344934 -0.558380863825 -0.55557023302)
	I361 : dAve : 	(-0.021248554192 -0.015759001824 -0.0173550114772) : omega : 	0.031850187791 : d : 	(-0.667842654799 -0.495305869755 -0.55557023302)
	I362 : dAve : 	(-0.022690888889 -0.0136003954048 -0.0173550114772) : omega : 	0.031850187791 : d : 	(-0.713175274818 -0.427460809398 -0.55557023302)
	I363 : dAve : 	(-0.0239146979219 -0.0113108097431 -0.0173550114772) : omega : 	0.031850187791 : d : 	(-0.751639627079 -0.355499067772 -0.55557023302)
	I364 : dAve : 	(-0.0249081953407 -0.00891229480052 -0.0173550114772) : omega : 	0.031850187791 : d : 	(-0.782865278843 -0.280113675789 -0.55557023302)
	I365 : dAve : 	(-0.0256618132222 -0.00642794958701 -0.0173550114772) : omega : 	0.031850187791 : d : 	(-0.806551510015 -0.202030635981 -0.55557023302)
	I366 : dAve : 	(-0.0261682938141 -0.00388169970511 -0.0173550114772) : omega : 	0.031850187791 : d : 	(-0.822470209239 -0.122001930708 -0.55557023302)
	I367 : dAve : 	(-0.0264227594316 -0.00129806693309 -0.0173550114772) : omega : 	0.031850187791 : d : 	(-0.83046807074 -0.0407982801496 -0.55557023302)
	I368 : dAve : 	(-0.0264227594316 0.00129806693309 -0.0173550114772) : omega : 	0.031850187791 : d : 	(-0.83046807074 0.0407982801496 -0.55557023302)
	I369 : dAve : 	(-0.0261682938141 0.00388169970511 -0.0173550114772) : omega : 	0.031850187791 : d : 	(-0.822470209239 0.122001930708 -0.55557023302)
	I370 : dAve : 	(-0.0256618132222 0.00642794958701 -0.0173550114772) : omega : 	0.031850187791 : d : 	(-0.806551510015 0.202030635981 -0.55557023302)
	I371 : dAve : 	(-0.0249081953407 0.00891229480052 -0.0173550114772) : omega : 	0.031850187791 : d : 	(-0.782865278843 0.280113675789 -0.55557023302)
	I372 : dAve : 	(-0.0239146979219 0.0113108097431 -0.0173550114772) : omega : 	0.031850187791 : d : 	(-0.751639627079 0.355499067772 -0.55557023302)
	I373 : dAve : 	(-0.022690888889 0.0136003954048 -0.0173550114772) : omega : 	0.031850187791 : d : 	(-0.713175274818 0.427460809398 -0.55557023302)
	I374 : dAve : 	(-0.021248554192 0.015759001824 -0.0173550114772) : omega : 	0.031850187791 : d : 	(-0.667842654799 0.495305869755 -0.55557023302)
	I375 : dAve : 	(-0.0196015843026 0.0177658404409 -0.0173550114772) : omega : 	0.031850187791 : d : 	(-0.616078344934 0.558380863825 -0.55557023302)
	I376 : dAve : 	(-0.0177658404409 0.0196015843026 -0.0173550114772) : omega : 	0.031850187791 : d : 	(-0.558380863825 0.616078344934 -0.55557023302)
	I377 : dAve : 	(-0.015759001824 0.021248554192 -0.0173550114772) : omega : 	0.031850187791 : d : 	(-0.495305869755 0.667842654799 -0.55557023302)
	I378 : dAve : 	(-0.0136003954048 0.022690888889 -0.0173550114772) : omega : 	0.031850187791 : d : 	(-0.427460809398 0.713175274818 -0.55557023302)
	I379 : dAve : 	(-0.0113108097431 0.0239146979219 -0.0173550114772) : omega : 	0.031850187791 : d : 	(-0.355499067772 0.751639627079 -0.55557023302)
	I380 : dAve : 	(-0.00891229480052 0.0249081953407 -0.0173550114772) : omega : 	0.031850187791 : d : 	(-0.280113675789 0.782865278843 -0.55557023302)
	I381 : dAve : 	(-0.00642794958701 0.0256618132222 -0.0173550114772) : omega : 	0.031850187791 : d : 	(-0.202030635981 0.806551510015 -0.55557023302)
	I382 : dAve : 	(-0.00388169970511 0.0261682938141 -0.0173550114772) : omega : 	0.031850187791 : d : 	(-0.122001930708 0.822470209239 -0.55557023302)
	I383 : dAve : 	(-0.00129806693309 0.0264227594316 -0.0173550114772) : omega : 	0.031850187791 : d : 	(-0.0407982801496 0.83046807074 -0.55557023302)
	I384 : dAve : 	(0.000592886480867 0.0120684815666 -0.0173550114772) : omega : 	0.0212816150956 : d : 	(0.0272605392598 0.554901024343 -0.831469612303)
	I385 : dAve : 	(0.00177294962168 0.0119522554918 -0.0173550114772) : omega : 	0.0212816150956 : d : 	(0.0815190838842 0.549557024139 -0.831469612303)
	I386 : dAve : 	(0.00293593828845 0.0117209226628 -0.0173550114772) : omega : 	0.0212816150956 : d : 	(0.134992555168 0.538920489374 -0.831469612303)
	I387 : dAve : 	(0.00407065226456 0.0113767109413 -0.0173550114772) : omega : 	0.0212816150956 : d : 	(0.187165974351 0.523093855692 -0.831469612303)
	I388 : dAve : 	(0.00516616363411 0.0109229352743 -0.0173550114772) : omega : 	0.0212816150956 : d : 	(0.237536882886 0.502229542228 -0.831469612303)
	I389 : dAve : 	(0.00621192202375 0.0103639657696 -0.0173550114772) : omega : 	0.0212816150956 : d : 	(0.285620181387 0.476528483725 -0.831469612303)
	I390 : dAve : 	(0.00719785620852 0.00970518560891 -0.0173550114772) : omega : 	0.0212816150956 : d : 	(0.330952801406 0.446238195428 -0.831469612303)
	I391 : dAve : 	(0.00811447110325 0.00895293920544 -0.0173550114772) : omega : 	0.0212816150956 : d : 	(0.373098165031 0.41165038937 -0.831469612303)
	I392 : dAve : 	(0.00895293920544 0.00811447110325 -0.0173550114772) : omega : 	0.0212816150956 : d : 	(0.41165038937 0.373098165031 -0.831469612303)
	I393 : dAve : 	(0.00970518560891 0.00719785620852 -0.0173550114772) : omega : 	0.0212816150956 : d : 	(0.446238195428 0.330952801406 -0.831469612303)
	I394 : dAve : 	(0.0103639657696 0.00621192202375 -0.0173550114772) : omega : 	0.0212816150956 : d : 	(0.476528483725 0.285620181387 -0.831469612303)
	I395 : dAve : 	(0.0109229352743 0.00516616363411 -0.0173550114772) : omega : 	0.0212816150956 : d : 	(0.502229542228 0.237536882886 -0.831469612303)
	I396 : dAve : 	(0.0113767109413 0.00407065226456 -0.0173550114772) : omega : 	0.0212816150956 : d : 	(0.523093855692 0.187165974351 -0.831469612303)
	I397 : dAve : 	(0.0117209226628 0.00293593828845 -0.0173550114772) : omega : 	0.0212816150956 : d : 	(0.538920489374 0.134992555168 -0.831469612303)
	I398 : dAve : 	(0.0119522554918 0.00177294962168 -0.0173550114772) : omega : 	0.0212816150956 : d : 	(0.549557024139 0.0815190838842 -0.831469612303)
	I399 : dAve : 	(0.0120684815666 0.000592886480867 -0.0173550114772) : omega : 	0.0212816150956 : d : 	(0.554901024343 0.0272605392598 -0.831469612303)
	I400 : dAve : 	(0.0120684815666 -0.000592886480867 -0.0173550114772) : omega : 	0.0212816150956 : d : 	(0.554901024343 -0.0272605392598 -0.831469612303)
	I401 : dAve : 	(0.0119522554918 -0.00177294962168 -0.0173550114772) : omega : 	0.0212816150956 : d : 	(0.549557024139 -0.0815190838842 -0.831469612303)
	I402 : dAve : 	(0.0117209226628 -0.00293593828845 -0.0173550114772) : omega : 	0.0212816150956 : d : 	(0.538920489374 -0.134992555168 -0.831469612303)
	I403 : dAve : 	(0.0113767109413 -0.00407065226456 -0.0173550114772) : omega : 	0.0212816150956 : d : 	(0.523093855692 -0.187165974351 -0.831469612303)
	I404 : dAve : 	(0.0109229352743 -0.00516616363411 -0.0173550114772) : omega : 	0.0212816150956 : d : 	(0.502229542228 -0.237536882886 -0.831469612303)
	I405 : dAve : 	(0.0103639657696 -0.00621192202375 -0.0173550114772) : omega : 	0.0212816150956 : d : 	(0.476528483725 -0.285620181387 -0.831469612303)
	I406 : dAve : 	(0.00970518560891 -0.00719785620852 -0.0173550114772) : omega : 	0.0212816150956 : d : 	(0.446238195428 -0.330952801406 -0.831469612303)
	I407 : dAve : 	(0.00895293920544 -0.00811447110325 -0.0173550114772) : omega : 	0.0212816150956 : d : 	(0.41165038937 -0.373098165031 -0.831469612303)
	I408 : dAve : 	(0.00811447110325 -0.00895293920544 -0.0173550114772) : omega : 	0.0212816150956 : d : 	(0.373098165031 -0.41165038937 -0.831469612303)
	I409 : dAve : 	(0.00719785620852 -0.00970518560891 -0.0173550114772) : omega : 	0.0212816150956 : d : 	(0.330952801406 -0.446238195428 -0.831469612303)
	I410 : dAve : 	(0.00621192202375 -0.0103639657696 -0.0173550114772) : omega : 	0.0212816150956 : d : 	(0.285620181387 -0.476528483725 -0.831469612303)
	I411 : dAve : 	(0.00516616363411 -0.0109229352743 -0.0173550114772) : omega : 	0.0212816150956 : d : 	(0.237536882886 -0.502229542228 -0.831469612303)
	I412 : dAve : 	(0.00407065226456 -0.0113767109413 -0.0173550114772) : omega : 	0.0212816150956 : d : 	(0.187165974351 -0.523093855692 -0.831469612303)
	I413 : dAve : 	(0.00293593828845 -0.0117209226628 -0.0173550114772) : omega : 	0.0212816150956 : d : 	(0.134992555168 -0.538920489374 -0.831469612303)
	I414 : dAve : 	(0.00177294962168 -0.0119522554918 -0.0173550114772) : omega : 	0.0212816150956 : d : 	(0.0815190838842 -0.549557024139 -0.831469612303)
	I415 : dAve : 	(0.000592886480867 -0.0120684815666 -0.0173550114772) : omega : 	0.0212816150956 : d : 	(0.0272605392598 -0.554901024343 -0.831469612303)
	I416 : dAve : 	(-0.000592886480867 -0.0120684815666 -0.0173550114772) : omega : 	0.0212816150956 : d : 	(-0.0272605392598 -0.554901024343 -0.831469612303)
	I417 : dAve : 	(-0.00177294962168 -0.0119522554918 -0.0173550114772) : omega : 	0.0212816150956 : d : 	(-0.0815190838842 -0.549557024139 -0.831469612303)
	I418 : dAve : 	(-0.00293593828845 -0.0117209226628 -0.0173550114772) : omega : 	0.0212816150956 : d : 	(-0.134992555168 -0.538920489374 -0.831469612303)
	I419 : dAve : 	(-0.00407065226456 -0.0113767109413 -0.0173550114772) : omega : 	0.0212816150956 : d : 	(-0.187165974351 -0.523093855692 -0.831469612303)
	I420 : dAve : 	(-0.00516616363411 -0.0109229352743 -0.0173550114772) : omega : 	0.0212816150956 : d : 	(-0.237536882886 -0.502229542228 -0.831469612303)
	I421 : dAve : 	(-0.00621192202375 -0.0103639657696 -0.0173550114772) : omega : 	0.0212816150956 : d : 	(-0.285620181387 -0.476528483725 -0.831469612303)
	I422 : dAve : 	(-0.00719785620852 -0.00970518560891 -0.0173550114772) : omega : 	0.0212816150956 : d : 	(-0.330952801406 -0.446238195428 -0.831469612303)
	I423 : dAve : 	(-0.00811447110325 -0.00895293920544 -0.0173550114772) : omega : 	0.0212816150956 : d : 	(-0.373098165031 -0.41165038937 -0.831469612303)
	I424 : dAve : 	(-0.00895293920544 -0.00811447110325 -0.0173550114772) : omega : 	0.0212816150956 : d : 	(-0.41165038937 -0.373098165031 -0.831469612303)
	I425 : dAve : 	(-0.00970518560891 -0.00719785620852 -0.0173550114772) : omega : 	0.0212816150956 : d : 	(-0.446238195428 -0.330952801406 -0.831469612303)
	I426 : dAve : 	(-0.0103639657696 -0.00621192202375 -0.0173550114772) : omega : 	0.0212816150956 : d : 	(-0.476528483725 -0.285620181387 -0.831469612303)
	I427 : dAve : 	(-0.0109229352743 -0.00516616363411 -0.0173550114772) : omega : 	0.0212816150956 : d : 	(-0.502229542228 -0.237536882886 -0.831469612303)
	I428 : dAve : 	(-0.0113767109413 -0.00407065226456 -0.0173550114772) : omega : 	0.0212816150956 : d : 	(-0.523093855692 -0.187165974351 -0.831469612303)
	I429 : dAve : 	(-0.0117209226628 -0.00293593828845 -0.0173550114772) : omega : 	0.0212816150956 : d : 	(-0.538920489374 -0.134992555168 -0.831469612303)
	I430 : dAve : 	(-0.0119522554918 -0.00177294962168 -0.0173550114772) : omega : 	0.0212816150956 : d : 	(-0.549557024139 -0.0815190838842 -0.831469612303)
	I431 : dAve : 	(-0.0120684815666 -0.000592886480867 -0.0173550114772) : omega : 	0.0212816150956 : d : 	(-0.554901024343 -0.0272605392598 -0.831469612303)
	I432 : dAve : 	(-0.0120684815666 0.000592886480867 -0.0173550114772) : omega : 	0.0212816150956 : d : 	(-0.554901024343 0.0272605392598 -0.831469612303)
	I433 : dAve : 	(-0.0119522554918 0.00177294962168 -0.0173550114772) : omega : 	0.0212816150956 : d : 	(-0.549557024139 0.0815190838842 -0.831469612303)
	I434 : dAve : 	(-0.0117209226628 0.00293593828845 -0.0173550114772) : omega : 	0.0212816150956 : d : 	(-0.538920489374 0.134992555168 -0.831469612303)
	I435 : dAve : 	(-0.0113767109413 0.00407065226456 -0.0173550114772) : omega : 	0.0212816150956 : d : 	(-0.523093855692 0.187165974351 -0.831469612303)
	I436 : dAve : 	(-0.0109229352743 0.00516616363411 -0.0173550114772) : omega : 	0.0212816150956 : d : 	(-0.502229542228 0.237536882886 -0.831469612303)
	I437 : dAve : 	(-0.0103639657696 0.00621192202375 -0.0173550114772) : omega : 	0.0212816150956 : d : 	(-0.476528483725 0.285620181387 -0.831469612303)
	I438 : dAve : 	(-0.00970518560891 0.00719785620852 -0.0173550114772) : omega : 	0.0212816150956 : d : 	(-0.446238195428 0.330952801406 -0.831469612303)
	I439 : dAve : 	(-0.00895293920544 0.00811447110325 -0.0173550114772) : omega : 	0.0212816150956 : d : 	(-0.41165038937 0.373098165031 -0.831469612303)
	I440 : dAve : 	(-0.00811447110325 0.00895293920544 -0.0173550114772) : omega : 	0.0212816150956 : d : 	(-0.373098165031 0.41165038937 -0.831469612303)
	I441 : dAve : 	(-0.00719785620852 0.00970518560891 -0.0173550114772) : omega : 	0.0212816150956 : d : 	(-0.330952801406 0.446238195428 -0.831469612303)
	I442 : dAve : 	(-0.00621192202375 0.0103639657696 -0.0173550114772) : omega : 	0.0212816150956 : d : 	(-0.285620181387 0.476528483725 -0.831469612303)
	I443 : dAve : 	(-0.00516616363411 0.0109229352743 -0.0173550114772) : omega : 	0.0212816150956 : d : 	(-0.237536882886 0.502229542228 -0.831469612303)
	I444 : dAve : 	(-0.00407065226456 0.0113767109413 -0.0173550114772) : omega : 	0.0212816150956 : d : 	(-0.187165974351 0.523093855692 -0.831469612303)
	I445 : dAve : 	(-0.00293593828845 0.0117209226628 -0.0173550114772) : omega : 	0.0212816150956 : d : 	(-0.134992555168 0.538920489374 -0.831469612303)
	I446 : dAve : 	(-0.00177294962168 0.0119522554918 -0.0173550114772) : omega : 	0.0212816150956 : d : 	(-0.0815190838842 0.549557024139 -0.831469612303)
	I447 : dAve : 	(-0.000592886480867 0.0120684815666 -0.0173550114772) : omega : 	0.0212816150956 : d : 	(-0.0272605392598 0.554901024343 -0.831469612303)
	I448 : dAve : 	(9.42486011392e-05 0.00191847434919 -0.00718868112899) : omega : 	0.00747310942032 : d : 	(0.00957262838512 0.194855327179 -0.980785280403)
	I449 : dAve : 	(0.000281838137867 0.00189999839246 -0.00718868112899) : omega : 	0.00747310942032 : d : 	(0.0286256955111 0.19297876386 -0.980785280403)
	I450 : dAve : 	(0.000466713419259 0.00186322441257 -0.00718868112899) : omega : 	0.00747310942032 : d : 	(0.0474030815409 0.189243709551 -0.980785280403)
	I451 : dAve : 	(0.000647093995292 0.00180850656304 -0.00718868112899) : omega : 	0.00747310942032 : d : 	(0.0657239499823 0.183686134869 -0.980785280403)
	I452 : dAve : 	(0.000821242702413 0.00173637180669 -0.00718868112899) : omega : 	0.00747310942032 : d : 	(0.0834118608569 0.176359562295 -0.980785280403)
	I453 : dAve : 	(0.000987482393372 0.00164751484063 -0.00718868112899) : omega : 	0.00747310942032 : d : 	(0.100296469914 0.167334550727 -0.980785280403)
	I454 : dAve : 	(0.00114421208907 0.00154279140604 -0.00718868112899) : omega : 	0.00747310942032 : d : 	(0.116215169138 0.156698015962 -0.980785280403)
	I455 : dAve : 	(0.00128992239686 0.00142321004683 -0.00718868112899) : omega : 	0.00747310942032 : d : 	(0.131014652754 0.144552393644 -0.980785280403)
	I456 : dAve : 	(0.00142321004683 0.00128992239686 -0.00718868112899) : omega : 	0.00747310942032 : d : 	(0.144552393644 0.131014652754 -0.980785280403)
	I457 : dAve : 	(0.00154279140604 0.00114421208907 -0.00718868112899) : omega : 	0.00747310942032 : d : 	(0.156698015962 0.116215169138 -0.980785280403)
	I458 : dAve : 	(0.00164751484063 0.000987482393372 -0.00718868112899) : omega : 	0.00747310942032 : d : 	(0.167334550727 0.100296469914 -0.980785280403)
	I459 : dAve : 	(0.00173637180669 0.000821242702413 -0.00718868112899) : omega : 	0.00747310942032 : d : 	(0.176359562295 0.0834118608569 -0.980785280403)
	I460 : dAve : 	(0.00180850656304 0.000647093995292 -0.00718868112899) : omega : 	0.00747310942032 : d : 	(0.183686134869 0.0657239499823 -0.980785280403)
	I461 : dAve : 	(0.00186322441257 0.000466713419259 -0.00718868112899) : omega : 	0.00747310942032 : d : 	(0.189243709551 0.0474030815409 -0.980785280403)
	I462 : dAve : 	(0.00189999839246 0.000281838137867 -0.00718868112899) : omega : 	0.00747310942032 : d : 	(0.19297876386 0.0286256955111 -0.980785280403)
	I463 : dAve : 	(0.00191847434919 9.42486011392e-05 -0.00718868112899) : omega : 	0.00747310942032 : d : 	(0.194855327179 0.00957262838512 -0.980785280403)
	I464 : dAve : 	(0.00191847434919 -9.42486011392e-05 -0.00718868112899) : omega : 	0.00747310942032 : d : 	(0.194855327179 -0.00957262838512 -0.980785280403)
	I465 : dAve : 	(0.00189999839246 -0.000281838137867 -0.00718868112899) : omega : 	0.00747310942032 : d : 	(0.19297876386 -0.0286256955111 -0.980785280403)
	I466 : dAve : 	(0.00186322441257 -0.000466713419259 -0.00718868112899) : omega : 	0.00747310942032 : d : 	(0.189243709551 -0.0474030815409 -0.980785280403)
	I467 : dAve : 	(0.00180850656304 -0.000647093995292 -0.00718868112899) : omega : 	0.00747310942032 : d : 	(0.183686134869 -0.0657239499823 -0.980785280403)
	I468 : dAve : 	(0.00173637180669 -0.000821242702413 -0.00718868112899) : omega : 	0.00747310942032 : d : 	(0.176359562295 -0.0834118608569 -0.980785280403)
	I469 : dAve : 	(0.00164751484063 -0.000987482393372 -0.00718868112899) : omega : 	0.00747310942032 : d : 	(0.167334550727 -0.100296469914 -0.980785280403)
	I470 : dAve : 	(0.00154279140604 -0.00114421208907 -0.00718868112899) : omega : 	0.00747310942032 : d : 	(0.156698015962 -0.116215169138 -0.980785280403)
	I471 : dAve : 	(0.00142321004683 -0.00128992239686 -0.00718868112899) : omega : 	0.00747310942032 : d : 	(0.144552393644 -0.131014652754 -0.980785280403)
	I472 : dAve : 	(0.00128992239686 -0.00142321004683 -0.00718868112899) : omega : 	0.00747310942032 : d : 	(0.131014652754 -0.144552393644 -0.980785280403)
	I473 : dAve : 	(0.00114421208907 -0.00154279140604 -0.00718868112899) : omega : 	0.00747310942032 : d : 	(0.116215169138 -0.156698015962 -0.980785280403)
	I474 : dAve : 	(0.000987482393372 -0.00164751484063 -0.00718868112899) : omega : 	0.00747310942032 : d : 	(0.100296469914 -0.167334550727 -0.980785280403)
	I475 : dAve : 	(0.000821242702413 -0.00173637180669 -0.00718868112899) : omega : 	0.00747310942032 : d : 	(0.0834118608569 -0.176359562295 -0.980785280403)
	I476 : dAve : 	(0.000647093995292 -0.00180850656304 -0.00718868112899) : omega : 	0.00747310942032 : d : 	(0.0657239499823 -0.183686134869 -0.980785280403)
	I477 : dAve : 	(0.000466713419259 -0.00186322441257 -0.00718868112899) : omega : 	0.00747310942032 : d : 	(0.0474030815409 -0.189243709551 -0.980785280403)
	I478 : dAve : 	(0.000281838137867 -0.00189999839246 -0.00718868112899) : omega : 	0.00747310942032 : d : 	(0.0286256955111 -0.19297876386 -0.980785280403)
	I479 : dAve : 	(9.42486011392e-05 -0.00191847434919 -0.00718868112899) : omega : 	0.00747310942032 : d : 	(0.00957262838512 -0.194855327179 -0.980785280403)
	I480 : dAve : 	(-9.42486011392e-05 -0.00191847434919 -0.00718868112899) : omega : 	0.00747310942032 : d : 	(-0.00957262838512 -0.194855327179 -0.980785280403)
	I481 : dAve : 	(-0.000281838137867 -0.00189999839246 -0.00718868112899) : omega : 	0.00747310942032 : d : 	(-0.0286256955111 -0.19297876386 -0.980785280403)
	I482 : dAve : 	(-0.000466713419259 -0.00186322441257 -0.00718868112899) : omega : 	0.00747310942032 : d : 	(-0.0474030815409 -0.189243709551 -0.980785280403)
	I483 : dAve : 	(-0.000647093995292 -0.00180850656304 -0.00718868112899) : omega : 	0.00747310942032 : d : 	(-0.0657239499823 -0.183686134869 -0.980785280403)
	I484 : dAve : 	(-0.000821242702413 -0.00173637180669 -0.00718868112899) : omega : 	0.00747310942032 : d : 	(-0.0834118608569 -0.176359562295 -0.980785280403)
	I485 : dAve : 	(-0.000987482393372 -0.00164751484063 -0.00718868112899) : omega : 	0.00747310942032 : d : 	(-0.100296469914 -0.167334550727 -0.980785280403)
	I486 : dAve : 	(-0.00114421208907 -0.00154279140604 -0.00718868112899) : omega : 	0.00747310942032 : d : 	(-0.116215169138 -0.156698015962 -0.980785280403)
	I487 : dAve : 	(-0.00128992239686 -0.00142321004683 -0.00718868112899) : omega : 	0.00747310942032 : d : 	(-0.131014652754 -0.144552393644 -0.980785280403)
	I488 : dAve : 	(-0.00142321004683 -0.00128992239686 -0.00718868112899) : omega : 	0.00747310942032 : d : 	(-0.144552393644 -0.131014652754 -0.980785280403)
	I489 : dAve : 	(-0.00154279140604 -0.00114421208907 -0.00718868112899) : omega : 	0.00747310942032 : d : 	(-0.156698015962 -0.116215169138 -0.980785280403)
	I490 : dAve : 	(-0.00164751484063 -0.000987482393372 -0.00718868112899) : omega : 	0.00747310942032 : d : 	(-0.167334550727 -0.100296469914 -0.980785280403)
	I491 : dAve : 	(-0.00173637180669 -0.000821242702413 -0.00718868112899) : omega : 	0.00747310942032 : d : 	(-0.176359562295 -0.0834118608569 -0.980785280403)
	I492 : dAve : 	(-0.00180850656304 -0.000647093995292 -0.00718868112899) : omega : 	0.00747310942032 : d : 	(-0.183686134869 -0.0657239499823 -0.980785280403)
	I493 : dAve : 	(-0.00186322441257 -0.000466713419259 -0.00718868112899) : omega : 	0.00747310942032 : d : 	(-0.189243709551 -0.0474030815409 -0.980785280403)
	I494 : dAve : 	(-0.00189999839246 -0.000281838137867 -0.00718868112899) : omega : 	0.00747310942032 : d : 	(-0.19297876386 -0.0286256955111 -0.980785280403)
	I495 : dAve : 	(-0.00191847434919 -9.42486011392e-05 -0.00718868112899) : omega : 	0.00747310942032 : d : 	(-0.194855327179 -0.00957262838512 -0.980785280403)
	I496 : dAve : 	(-0.00191847434919 9.42486011392e-05 -0.00718868112899) : omega : 	0.00747310942032 : d : 	(-0.194855327179 0.00957262838512 -0.980785280403)
	I497 : dAve : 	(-0.00189999839246 0.000281838137867 -0.00718868112899) : omega : 	0.00747310942032 : d : 	(-0.19297876386 0.0286256955111 -0.980785280403)
	I498 : dAve : 	(-0.00186322441257 0.000466713419259 -0.00718868112899) : omega : 	0.00747310942032 : d : 	(-0.189243709551 0.0474030815409 -0.980785280403)
	I499 : dAve : 	(-0.00180850656304 0.000647093995292 -0.00718868112899) : omega : 	0.00747310942032 : d : 	(-0.183686134869 0.0657239499823 -0.980785280403)
	I500 : dAve : 	(-0.00173637180669 0.000821242702413 -0.00718868112899) : omega : 	0.00747310942032 : d : 	(-0.176359562295 0.0834118608569 -0.980785280403)
	I501 : dAve : 	(-0.00164751484063 0.000987482393372 -0.00718868112899) : omega : 	0.00747310942032 : d : 	(-0.167334550727 0.100296469914 -0.980785280403)
	I502 : dAve : 	(-0.00154279140604 0.00114421208907 -0.00718868112899) : omega : 	0.00747310942032 : d : 	(-0.156698015962 0.116215169138 -0.980785280403)
	I503 : dAve : 	(-0.00142321004683 0.00128992239686 -0.00718868112899) : omega : 	0.00747310942032 : d : 	(-0.144552393644 0.131014652754 -0.980785280403)
	I504 : dAve : 	(-0.00128992239686 0.00142321004683 -0.00718868112899) : omega : 	0.00747310942032 : d : 	(-0.131014652754 0.144552393644 -0.980785280403)
	I505 : dAve : 	(-0.00114421208907 0.00154279140604 -0.00718868112899) : omega : 	0.00747310942032 : d : 	(-0.116215169138 0.156698015962 -0.980785280403)
	I506 : dAve : 	(-0.000987482393372 0.00164751484063 -0.00718868112899) : omega : 	0.00747310942032 : d : 	(-0.100296469914 0.167334550727 -0.980785280403)
	I507 : dAve : 	(-0.000821242702413 0.00173637180669 -0.00718868112899) : omega : 	0.00747310942032 : d : 	(-0.0834118608569 0.176359562295 -0.980785280403)
	I508 : dAve : 	(-0.000647093995292 0.00180850656304 -0.00718868112899) : omega : 	0.00747310942032 : d : 	(-0.0657239499823 0.183686134869 -0.980785280403)
	I509 : dAve : 	(-0.000466713419259 0.00186322441257 -0.00718868112899) : omega : 	0.00747310942032 : d : 	(-0.0474030815409 0.189243709551 -0.980785280403)
	I510 : dAve : 	(-0.000281838137867 0.00189999839246 -0.00718868112899) : omega : 	0.00747310942032 : d : 	(-0.0286256955111 0.19297876386 -0.980785280403)
[...]
DILUPBiCGStab:  Solving for ILambda_364_0, Initial residual = 2.25357161533e-16, Final residual = 1.4631452086e-61, No Iterations 2
DILUPBiCGStab:  Solving for ILambda_365_0, Initial residual = 2.39836802021e-16, Final residual = 3.31938579261e-61, No Iterations 2
DILUPBiCGStab:  Solving for ILambda_366_0, Initial residual = 1.6494031959e-16, Final residual = 4.58075388549e-62, No Iterations 2
DILUPBiCGStab:  Solving for ILambda_367_0, Initial residual = 1.59526257939e-16, Final residual = 2.29381040938e-62, No Iterations 2
DILUPBiCGStab:  Solving for ILambda_368_0, Initial residual = 1.62606684759e-16, Final residual = 8.74598689264e-62, No Iterations 23
DILUPBiCGStab:  Solving for ILambda_369_0, Initial residual = 1.95038897002e-16, Final residual = 2.09264980708e-61, No Iterations 32
DILUPBiCGStab:  Solving for ILambda_370_0, Initial residual = 3.00430547377e-16, Final residual = 7.41638521353e-63, No Iterations 38
DILUPBiCGStab:  Solving for ILambda_371_0, Initial residual = 2.94182684177e-16, Final residual = 1.70117911123e-61, No Iterations 39
DILUPBiCGStab:  Solving for ILambda_372_0, Initial residual = 3.28410850634e-16, Final residual = 8.69750074384e-61, No Iterations 42
DILUPBiCGStab:  Solving for ILambda_373_0, Initial residual = 3.24754285933e-16, Final residual = 4.77319315957e-61, No Iterations 44
DILUPBiCGStab:  Solving for ILambda_374_0, Initial residual = 3.74611965061e-16, Final residual = 3.34477130422e-61, No Iterations 46
DILUPBiCGStab:  Solving for ILambda_375_0, Initial residual = 3.1151465184e-16, Final residual = 6.35455535128e-61, No Iterations 45
DILUPBiCGStab:  Solving for ILambda_376_0, Initial residual = 3.81152103464e-16, Final residual = 5.34212992879e-62, No Iterations 48
DILUPBiCGStab:  Solving for ILambda_377_0, Initial residual = 2.97578700917e-16, Final residual = 9.73166179111e-61, No Iterations 45
DILUPBiCGStab:  Solving for ILambda_378_0, Initial residual = 3.17588495921e-16, Final residual = 2.74938894817e-61, No Iterations 47
DILUPBiCGStab:  Solving for ILambda_379_0, Initial residual = 3.00887227383e-16, Final residual = 7.95489579072e-61, No Iterations 42
DILUPBiCGStab:  Solving for ILambda_380_0, Initial residual = 2.85110856035e-16, Final residual = 9.96481864136e-62, No Iterations 38
DILUPBiCGStab:  Solving for ILambda_381_0, Initial residual = 3.05577331045e-16, Final residual = 4.51488640045e-61, No Iterations 36
DILUPBiCGStab:  Solving for ILambda_382_0, Initial residual = 1.97649424132e-16, Final residual = 7.56745051184e-61, No Iterations 31
DILUPBiCGStab:  Solving for ILambda_383_0, Initial residual = 1.70980513565e-16, Final residual = 2.49043257394e-61, No Iterations 24
DILUPBiCGStab:  Solving for ILambda_384_0, Initial residual = 7.02354620739e-17, Final residual = 6.96168631469e-63, No Iterations 13
DILUPBiCGStab:  Solving for ILambda_385_0, Initial residual = 7.78170712487e-17, Final residual = 5.19298258524e-62, No Iterations 12
DILUPBiCGStab:  Solving for ILambda_386_0, Initial residual = 7.7529122487e-17, Final residual = 3.80506255657e-61, No Iterations 12
DILUPBiCGStab:  Solving for ILambda_387_0, Initial residual = 1.18083508817e-16, Final residual = 1.71073583815e-61, No Iterations 13
DILUPBiCGStab:  Solving for ILambda_388_0, Initial residual = 1.17436705714e-16, Final residual = 4.63051775525e-61, No Iterations 14
DILUPBiCGStab:  Solving for ILambda_389_0, Initial residual = 1.18824051501e-16, Final residual = 7.27451074928e-62, No Iterations 14
DILUPBiCGStab:  Solving for ILambda_390_0, Initial residual = 1.21051688499e-16, Final residual = 1.31864544802e-61, No Iterations 12
DILUPBiCGStab:  Solving for ILambda_391_0, Initial residual = 1.25058695016e-16, Final residual = 3.51752410333e-61, No Iterations 14
DILUPBiCGStab:  Solving for ILambda_392_0, Initial residual = 1.27216387866e-16, Final residual = 8.54717907934e-61, No Iterations 12
DILUPBiCGStab:  Solving for ILambda_393_0, Initial residual = 1.3039584214e-16, Final residual = 5.02649452464e-61, No Iterations 13
DILUPBiCGStab:  Solving for ILambda_394_0, Initial residual = 1.30467228435e-16, Final residual = 1.59404394507e-61, No Iterations 14
DILUPBiCGStab:  Solving for ILambda_395_0, Initial residual = 1.28870290561e-16, Final residual = 1.02297812524e-61, No Iterations 13
DILUPBiCGStab:  Solving for ILambda_396_0, Initial residual = 1.26877002514e-16, Final residual = 2.75442695496e-63, No Iterations 12
DILUPBiCGStab:  Solving for ILambda_397_0, Initial residual = 9.12309648171e-17, Final residual = 1.28419699344e-62, No Iterations 13
DILUPBiCGStab:  Solving for ILambda_398_0, Initial residual = 8.87170615625e-17, Final residual = 6.83803154575e-61, No Iterations 12
DILUPBiCGStab:  Solving for ILambda_399_0, Initial residual = 7.48003392716e-17, Final residual = 1.1473553344e-61, No Iterations 13
DILUPBiCGStab:  Solving for ILambda_400_0, Initial residual = 7.23667155549e-17, Final residual = 3.48860127896e-61, No Iterations 23
DILUPBiCGStab:  Solving for ILambda_401_0, Initial residual = 8.24804951846e-17, Final residual = 1.55668211012e-61, No Iterations 32
DILUPBiCGStab:  Solving for ILambda_402_0, Initial residual = 8.59928451472e-17, Final residual = 2.45052440639e-61, No Iterations 36
DILUPBiCGStab:  Solving for ILambda_403_0, Initial residual = 1.53267338276e-16, Final residual = 2.82500360597e-61, No Iterations 40
DILUPBiCGStab:  Solving for ILambda_404_0, Initial residual = 1.55654572919e-16, Final residual = 3.61086189824e-61, No Iterations 39
DILUPBiCGStab:  Solving for ILambda_405_0, Initial residual = 1.21824439141e-16, Final residual = 6.80309400224e-61, No Iterations 43
DILUPBiCGStab:  Solving for ILambda_406_0, Initial residual = 1.31714685926e-16, Final residual = 6.16679485169e-61, No Iterations 44
DILUPBiCGStab:  Solving for ILambda_407_0, Initial residual = 1.53605041123e-16, Final residual = 1.28392929727e-61, No Iterations 48
DILUPBiCGStab:  Solving for ILambda_408_0, Initial residual = 1.46324119678e-16, Final residual = 9.14928561202e-61, No Iterations 47
DILUPBiCGStab:  Solving for ILambda_409_0, Initial residual = 1.66681472203e-16, Final residual = 7.63749801574e-61, No Iterations 44
DILUPBiCGStab:  Solving for ILambda_410_0, Initial residual = 1.57602914039e-16, Final residual = 4.6143416558e-61, No Iterations 42
DILUPBiCGStab:  Solving for ILambda_411_0, Initial residual = 1.49279800749e-16, Final residual = 2.05593732831e-61, No Iterations 40
DILUPBiCGStab:  Solving for ILambda_412_0, Initial residual = 1.32282891996e-16, Final residual = 3.84635321339e-61, No Iterations 40
DILUPBiCGStab:  Solving for ILambda_413_0, Initial residual = 9.54165572519e-17, Final residual = 6.58382689557e-61, No Iterations 36
DILUPBiCGStab:  Solving for ILambda_414_0, Initial residual = 9.31973327802e-17, Final residual = 9.39761797317e-61, No Iterations 30
DILUPBiCGStab:  Solving for ILambda_415_0, Initial residual = 7.45400316681e-17, Final residual = 6.37332389899e-61, No Iterations 23
DILUPBiCGStab:  Solving for ILambda_416_0, Initial residual = 6.75917655544e-17, Final residual = 4.10076903715e-63, No Iterations 2
DILUPBiCGStab:  Solving for ILambda_417_0, Initial residual = 8.5454203098e-17, Final residual = 1.32740506531e-62, No Iterations 2
DILUPBiCGStab:  Solving for ILambda_418_0, Initial residual = 9.04868167651e-17, Final residual = 2.46776354483e-62, No Iterations 2
DILUPBiCGStab:  Solving for ILambda_419_0, Initial residual = 1.24111204182e-16, Final residual = 7.01793200554e-63, No Iterations 2
DILUPBiCGStab:  Solving for ILambda_420_0, Initial residual = 1.2245922435e-16, Final residual = 3.47715477354e-63, No Iterations 2
DILUPBiCGStab:  Solving for ILambda_421_0, Initial residual = 1.27273593045e-16, Final residual = 9.04996709007e-63, No Iterations 2
DILUPBiCGStab:  Solving for ILambda_422_0, Initial residual = 1.27784353578e-16, Final residual = 9.56838133234e-63, No Iterations 2
DILUPBiCGStab:  Solving for ILambda_423_0, Initial residual = 1.24546492335e-16, Final residual = 1.77291568907e-61, No Iterations 2
DILUPBiCGStab:  Solving for ILambda_424_0, Initial residual = 1.293827336e-16, Final residual = 1.29382816968e-75, No Iterations 2
DILUPBiCGStab:  Solving for ILambda_425_0, Initial residual = 1.18913464639e-16, Final residual = 2.57821483931e-63, No Iterations 2
DILUPBiCGStab:  Solving for ILambda_426_0, Initial residual = 1.21670369728e-16, Final residual = 8.43499737613e-63, No Iterations 2
DILUPBiCGStab:  Solving for ILambda_427_0, Initial residual = 1.17356906892e-16, Final residual = 2.58078369195e-62, No Iterations 2
DILUPBiCGStab:  Solving for ILambda_428_0, Initial residual = 1.19860474757e-16, Final residual = 6.09175606249e-63, No Iterations 2
DILUPBiCGStab:  Solving for ILambda_429_0, Initial residual = 8.19031555137e-17, Final residual = 7.10084435517e-63, No Iterations 2
DILUPBiCGStab:  Solving for ILambda_430_0, Initial residual = 7.33668447683e-17, Final residual = 7.51759112788e-63, No Iterations 2
DILUPBiCGStab:  Solving for ILambda_431_0, Initial residual = 6.97559480675e-17, Final residual = 1.80778065961e-62, No Iterations 2
DILUPBiCGStab:  Solving for ILambda_432_0, Initial residual = 6.67726258382e-17, Final residual = 2.36114940648e-61, No Iterations 22
DILUPBiCGStab:  Solving for ILambda_433_0, Initial residual = 1.01254129519e-16, Final residual = 2.30246834749e-62, No Iterations 32
DILUPBiCGStab:  Solving for ILambda_434_0, Initial residual = 1.04441515604e-16, Final residual = 3.28640994932e-61, No Iterations 35
DILUPBiCGStab:  Solving for ILambda_435_0, Initial residual = 1.71944348736e-16, Final residual = 6.47155437615e-61, No Iterations 40
DILUPBiCGStab:  Solving for ILambda_436_0, Initial residual = 1.43910445667e-16, Final residual = 4.78015319795e-61, No Iterations 42
DILUPBiCGStab:  Solving for ILambda_437_0, Initial residual = 1.59855548259e-16, Final residual = 3.07011284365e-61, No Iterations 42
DILUPBiCGStab:  Solving for ILambda_438_0, Initial residual = 1.45996511864e-16, Final residual = 2.59975637513e-61, No Iterations 46
DILUPBiCGStab:  Solving for ILambda_439_0, Initial residual = 1.66206284638e-16, Final residual = 3.2400726754e-61, No Iterations 49
DILUPBiCGStab:  Solving for ILambda_440_0, Initial residual = 1.59818052427e-16, Final residual = 8.53748498214e-61, No Iterations 49
DILUPBiCGStab:  Solving for ILambda_441_0, Initial residual = 1.44588735655e-16, Final residual = 8.93129502503e-61, No Iterations 43
DILUPBiCGStab:  Solving for ILambda_442_0, Initial residual = 1.44582005634e-16, Final residual = 1.69519295024e-61, No Iterations 44
DILUPBiCGStab:  Solving for ILambda_443_0, Initial residual = 1.31870437844e-16, Final residual = 6.93049296005e-61, No Iterations 42
DILUPBiCGStab:  Solving for ILambda_444_0, Initial residual = 1.53795885294e-16, Final residual = 1.46686312064e-61, No Iterations 38
DILUPBiCGStab:  Solving for ILambda_445_0, Initial residual = 1.0097843901e-16, Final residual = 5.50836738854e-61, No Iterations 35
DILUPBiCGStab:  Solving for ILambda_446_0, Initial residual = 9.89471744148e-17, Final residual = 7.43796284681e-62, No Iterations 31
DILUPBiCGStab:  Solving for ILambda_447_0, Initial residual = 7.20830932354e-17, Final residual = 1.60820981975e-61, No Iterations 22
DILUPBiCGStab:  Solving for ILambda_448_0, Initial residual = 4.18876075232e-17, Final residual = 3.94904307045e-62, No Iterations 11
DILUPBiCGStab:  Solving for ILambda_449_0, Initial residual = 4.43558084992e-17, Final residual = 1.39837743386e-62, No Iterations 11
DILUPBiCGStab:  Solving for ILambda_450_0, Initial residual = 4.00426222163e-17, Final residual = 6.75692949937e-61, No Iterations 11
DILUPBiCGStab:  Solving for ILambda_451_0, Initial residual = 3.96925711433e-17, Final residual = 1.02038948055e-61, No Iterations 12
DILUPBiCGStab:  Solving for ILambda_452_0, Initial residual = 3.92643279741e-17, Final residual = 8.88112921644e-61, No Iterations 12
DILUPBiCGStab:  Solving for ILambda_453_0, Initial residual = 3.46730447551e-17, Final residual = 4.99528048348e-61, No Iterations 11
DILUPBiCGStab:  Solving for ILambda_454_0, Initial residual = 3.94347838426e-17, Final residual = 1.16934043356e-62, No Iterations 12
DILUPBiCGStab:  Solving for ILambda_455_0, Initial residual = 4.487515489e-17, Final residual = 6.79100616728e-62, No Iterations 12
DILUPBiCGStab:  Solving for ILambda_456_0, Initial residual = 4.35554637957e-17, Final residual = 1.40194834084e-61, No Iterations 11
DILUPBiCGStab:  Solving for ILambda_457_0, Initial residual = 3.64833586131e-17, Final residual = 4.06287996299e-61, No Iterations 11
DILUPBiCGStab:  Solving for ILambda_458_0, Initial residual = 4.04025379693e-17, Final residual = 1.53687516814e-62, No Iterations 12
DILUPBiCGStab:  Solving for ILambda_459_0, Initial residual = 4.23268759231e-17, Final residual = 2.57778688017e-61, No Iterations 12
DILUPBiCGStab:  Solving for ILambda_460_0, Initial residual = 4.28148874479e-17, Final residual = 1.10195281435e-61, No Iterations 11
DILUPBiCGStab:  Solving for ILambda_461_0, Initial residual = 4.73472727242e-17, Final residual = 2.52232659672e-63, No Iterations 11
DILUPBiCGStab:  Solving for ILambda_462_0, Initial residual = 5.30946094037e-17, Final residual = 2.9482199848e-61, No Iterations 11
DILUPBiCGStab:  Solving for ILambda_463_0, Initial residual = 5.03359806416e-17, Final residual = 1.50547827393e-61, No Iterations 11
DILUPBiCGStab:  Solving for ILambda_464_0, Initial residual = 4.37600108379e-17, Final residual = 6.96124426101e-61, No Iterations 23
DILUPBiCGStab:  Solving for ILambda_465_0, Initial residual = 4.70284114485e-17, Final residual = 2.43474171197e-61, No Iterations 29
DILUPBiCGStab:  Solving for ILambda_466_0, Initial residual = 4.04039886575e-17, Final residual = 2.20410163188e-61, No Iterations 34
DILUPBiCGStab:  Solving for ILambda_467_0, Initial residual = 4.95350556629e-17, Final residual = 6.59827209405e-61, No Iterations 38
DILUPBiCGStab:  Solving for ILambda_468_0, Initial residual = 5.22220204258e-17, Final residual = 4.87809299713e-61, No Iterations 40
DILUPBiCGStab:  Solving for ILambda_469_0, Initial residual = 6.07629474541e-17, Final residual = 2.7884103315e-61, No Iterations 42
DILUPBiCGStab:  Solving for ILambda_470_0, Initial residual = 4.1679723898e-17, Final residual = 4.66026740719e-61, No Iterations 44
DILUPBiCGStab:  Solving for ILambda_471_0, Initial residual = 4.3575048087e-17, Final residual = 4.72413441396e-61, No Iterations 44
DILUPBiCGStab:  Solving for ILambda_472_0, Initial residual = 3.77531460318e-17, Final residual = 5.37514412821e-61, No Iterations 45
DILUPBiCGStab:  Solving for ILambda_473_0, Initial residual = 5.39641519364e-17, Final residual = 4.24761855688e-62, No Iterations 44
DILUPBiCGStab:  Solving for ILambda_474_0, Initial residual = 5.19082365589e-17, Final residual = 5.84588144513e-61, No Iterations 43
DILUPBiCGStab:  Solving for ILambda_475_0, Initial residual = 5.06446870996e-17, Final residual = 3.90264783555e-61, No Iterations 39
DILUPBiCGStab:  Solving for ILambda_476_0, Initial residual = 4.44457511702e-17, Final residual = 1.1851708547e-61, No Iterations 40
DILUPBiCGStab:  Solving for ILambda_477_0, Initial residual = 5.65295490246e-17, Final residual = 6.70975219163e-64, No Iterations 36
DILUPBiCGStab:  Solving for ILambda_478_0, Initial residual = 5.64266952282e-17, Final residual = 4.12929422017e-61, No Iterations 29
DILUPBiCGStab:  Solving for ILambda_479_0, Initial residual = 4.91072477001e-17, Final residual = 7.77895283876e-61, No Iterations 22
DILUPBiCGStab:  Solving for ILambda_480_0, Initial residual = 4.790056522e-17, Final residual = 8.64124165894e-63, No Iterations 2
DILUPBiCGStab:  Solving for ILambda_481_0, Initial residual = 5.24924287142e-17, Final residual = 1.97689241936e-62, No Iterations 2
DILUPBiCGStab:  Solving for ILambda_482_0, Initial residual = 4.54094433698e-17, Final residual = 4.77523194868e-63, No Iterations 2
DILUPBiCGStab:  Solving for ILambda_483_0, Initial residual = 4.28655164675e-17, Final residual = 1.72949097281e-63, No Iterations 2
DILUPBiCGStab:  Solving for ILambda_484_0, Initial residual = 4.64591613821e-17, Final residual = 5.17758968185e-63, No Iterations 2
DILUPBiCGStab:  Solving for ILambda_485_0, Initial residual = 4.07517186293e-17, Final residual = 5.96725686765e-63, No Iterations 2
DILUPBiCGStab:  Solving for ILambda_486_0, Initial residual = 3.84300371658e-17, Final residual = 3.44692946279e-63, No Iterations 2
DILUPBiCGStab:  Solving for ILambda_487_0, Initial residual = 3.74846236381e-17, Final residual = 2.97837387109e-63, No Iterations 2
DILUPBiCGStab:  Solving for ILambda_488_0, Initial residual = 3.48494484454e-17, Final residual = 5.73707333796e-63, No Iterations 2
DILUPBiCGStab:  Solving for ILambda_489_0, Initial residual = 3.6988633328e-17, Final residual = 4.81045097276e-63, No Iterations 2
DILUPBiCGStab:  Solving for ILambda_490_0, Initial residual = 4.56078975214e-17, Final residual = 3.30860485967e-63, No Iterations 2
DILUPBiCGStab:  Solving for ILambda_491_0, Initial residual = 4.13248855539e-17, Final residual = 2.3972018694e-63, No Iterations 2
DILUPBiCGStab:  Solving for ILambda_492_0, Initial residual = 3.89644707144e-17, Final residual = 2.78382507882e-63, No Iterations 2
DILUPBiCGStab:  Solving for ILambda_493_0, Initial residual = 3.93840097541e-17, Final residual = 2.27991642633e-63, No Iterations 2
DILUPBiCGStab:  Solving for ILambda_494_0, Initial residual = 4.56710024599e-17, Final residual = 2.00199352776e-62, No Iterations 2
DILUPBiCGStab:  Solving for ILambda_495_0, Initial residual = 4.29065709448e-17, Final residual = 1.79969895656e-63, No Iterations 2
DILUPBiCGStab:  Solving for ILambda_496_0, Initial residual = 4.84561788169e-17, Final residual = 9.4416491237e-62, No Iterations 23
DILUPBiCGStab:  Solving for ILambda_497_0, Initial residual = 5.49372736095e-17, Final residual = 7.00199411217e-61, No Iterations 30
DILUPBiCGStab:  Solving for ILambda_498_0, Initial residual = 4.97391674986e-17, Final residual = 1.0525785138e-61, No Iterations 35
DILUPBiCGStab:  Solving for ILambda_499_0, Initial residual = 4.61426212076e-17, Final residual = 4.71445679982e-61, No Iterations 38
DILUPBiCGStab:  Solving for ILambda_500_0, Initial residual = 5.29903049191e-17, Final residual = 6.13204277759e-61, No Iterations 40
DILUPBiCGStab:  Solving for ILambda_501_0, Initial residual = 6.06487782894e-17, Final residual = 5.39376535557e-61, No Iterations 41
DILUPBiCGStab:  Solving for ILambda_502_0, Initial residual = 4.71581029774e-17, Final residual = 4.98692110454e-61, No Iterations 44
DILUPBiCGStab:  Solving for ILambda_503_0, Initial residual = 5.35711604914e-17, Final residual = 3.85202151601e-61, No Iterations 43
DILUPBiCGStab:  Solving for ILambda_504_0, Initial residual = 4.91021702913e-17, Final residual = 3.20135942524e-61, No Iterations 43
DILUPBiCGStab:  Solving for ILambda_505_0, Initial residual = 3.73000960936e-17, Final residual = 4.59153095813e-61, No Iterations 44
DILUPBiCGStab:  Solving for ILambda_506_0, Initial residual = 5.49836956333e-17, Final residual = 2.02850924978e-61, No Iterations 40
DILUPBiCGStab:  Solving for ILambda_507_0, Initial residual = 4.81039517116e-17, Final residual = 3.85629972137e-61, No Iterations 42
DILUPBiCGStab:  Solving for ILambda_508_0, Initial residual = 4.28060382496e-17, Final residual = 2.19019185367e-61, No Iterations 37
DILUPBiCGStab:  Solving for ILambda_509_0, Initial residual = 4.29225285155e-17, Final residual = 1.23532881407e-61, No Iterations 36
DILUPBiCGStab:  Solving for ILambda_510_0, Initial residual = 4.63919945165e-17, Final residual = 6.22823563672e-61, No Iterations 31
DILUPBiCGStab:  Solving for ILambda_511_0, Initial residual = 4.49520413669e-17, Final residual = 1.97957279622e-61, No Iterations 22
min/max(T) = 1000, 1000
ExecutionTime = 64.22 s  ClockTime = 64 s

writeObjects writeObjects1.writeObjects write:
    writing object a
    writing object qem
End

