/*---------------------------------------------------------------------------*\
| =========                 |                                                 |
| \\      /  F ield         | OpenFOAM: The Open Source CFD Toolbox           |
|  \\    /   O peration     | Version:  2306                                  |
|   \\  /    A nd           | Website:  www.openfoam.com                      |
|    \\/     M anipulation  |                                                 |
\*---------------------------------------------------------------------------*/
Build  : _fbf00d6b-20230626 OPENFOAM=2306 version=2306
Arch   : "LSB;label=32;scalar=64"
Exec   : fireRADFoam_MaCFP
Date   : Mar 13 2024
Time   : 01:19:38
Host   : pop-os
PID    : 198455
I/O    : uncollated
Case   : /home/rafay/Desktop/Study/Radiative_Heat_Transfer/Local_copy_RHT2324/01_Projects/02_Rafay/Case_1_q1D_SolidAngle/new_case3/th_4-ph_8/tau_0.1/res_8
nProcs : 1
trapFpe: Floating point exception trapping enabled (FOAM_SIGFPE).
fileModificationChecking : Monitoring run-time modified files using timeStampMaster (fileModificationSkew 5, maxFileModificationPolls 20)
allowSystemOperations : Allowing user-supplied system call operations

// * * * * * * * * * * * * * * * * * * * * * * * * * * * * * * * * * * * * * //
Create time

Create mesh for time = 0


PIMPLE: no residual control data found. Calculations will employ 10 corrector loops

Reading thermophysical properties

Selecting thermodynamics package 
{
    type            hePsiThermo;
    mixture         singleStepReactingMixture;
    transport       sutherland;
    thermo          janaf;
    energy          sensibleEnthalpy;
    equationOfState perfectGas;
    specie          specie;
}

Selecting chemistryReader foamChemistryReader
    elements not defined in "/home/rafay/Desktop/Study/Radiative_Heat_Transfer/Local_copy_RHT2324/01_Projects/02_Rafay/Case_1_q1D_SolidAngle/new_case3/th_4-ph_8/tau_0.1/res_8/constant/reactions"
Fuel heat of combustion :47168962.4726
stoichiometric air-fuel ratio :14.6914056505
stoichiometric oxygen-fuel ratio :3.42181919285
Maximum products mass concentrations:
    H2O: 0.0818486943001
    CO2: 0.199950099979
    N2: 0.718201205721
Creating component thermo properties:
    multi-component carrier - 6 species
    no liquid components
    no solid components
Creating field rho


Reading field U

Reading/calculating face flux field phi

Selecting radiationModel fvDOM
Selecting absorptionEmissionModel constantAbsorptionEmission
Selecting scatterModel none
Selecting sootModel none
fvDOM : Allocated 128 rays with average orientation:
	I0 : dAve : 	(0.00274192284156 0.0278392098 0.0490873852123) : omega : 	0.0575094490319 : d : 	(0.0375095356919 0.38084070704 0.923879532511)
	I1 : dAve : 	(0.00812039796756 0.0267693645798 0.0490873852123) : omega : 	0.0575094490319 : d : 	(0.111087136655 0.366205212247 0.923879532511)
	I2 : dAve : 	(0.0131868107536 0.0246707876912 0.0490873852123) : omega : 	0.0575094490319 : d : 	(0.180395721254 0.337496656517 0.923879532511)
	I3 : dAve : 	(0.0177464617977 0.0216241262672 0.0490873852123) : omega : 	0.0575094490319 : d : 	(0.242771799453 0.295818293547 0.923879532511)
	I4 : dAve : 	(0.0216241262672 0.0177464617977 0.0490873852123) : omega : 	0.0575094490319 : d : 	(0.295818293547 0.242771799453 0.923879532511)
	I5 : dAve : 	(0.0246707876912 0.0131868107536 0.0490873852123) : omega : 	0.0575094490319 : d : 	(0.337496656517 0.180395721254 0.923879532511)
	I6 : dAve : 	(0.0267693645798 0.00812039796756 0.0490873852123) : omega : 	0.0575094490319 : d : 	(0.366205212247 0.111087136655 0.923879532511)
	I7 : dAve : 	(0.0278392098 0.00274192284156 0.0490873852123) : omega : 	0.0575094490319 : d : 	(0.38084070704 0.0375095356919 0.923879532511)
	I8 : dAve : 	(0.0278392098 -0.00274192284156 0.0490873852123) : omega : 	0.0575094490319 : d : 	(0.38084070704 -0.0375095356919 0.923879532511)
	I9 : dAve : 	(0.0267693645798 -0.00812039796756 0.0490873852123) : omega : 	0.0575094490319 : d : 	(0.366205212247 -0.111087136655 0.923879532511)
	I10 : dAve : 	(0.0246707876912 -0.0131868107536 0.0490873852123) : omega : 	0.0575094490319 : d : 	(0.337496656517 -0.180395721254 0.923879532511)
	I11 : dAve : 	(0.0216241262672 -0.0177464617977 0.0490873852123) : omega : 	0.0575094490319 : d : 	(0.295818293547 -0.242771799453 0.923879532511)
	I12 : dAve : 	(0.0177464617977 -0.0216241262672 0.0490873852123) : omega : 	0.0575094490319 : d : 	(0.242771799453 -0.295818293547 0.923879532511)
	I13 : dAve : 	(0.0131868107536 -0.0246707876912 0.0490873852123) : omega : 	0.0575094490319 : d : 	(0.180395721254 -0.337496656517 0.923879532511)
	I14 : dAve : 	(0.00812039796756 -0.0267693645798 0.0490873852123) : omega : 	0.0575094490319 : d : 	(0.111087136655 -0.366205212247 0.923879532511)
	I15 : dAve : 	(0.00274192284156 -0.0278392098 0.0490873852123) : omega : 	0.0575094490319 : d : 	(0.0375095356919 -0.38084070704 0.923879532511)
	I16 : dAve : 	(-0.00274192284156 -0.0278392098 0.0490873852123) : omega : 	0.0575094490319 : d : 	(-0.0375095356919 -0.38084070704 0.923879532511)
	I17 : dAve : 	(-0.00812039796756 -0.0267693645798 0.0490873852123) : omega : 	0.0575094490319 : d : 	(-0.111087136655 -0.366205212247 0.923879532511)
	I18 : dAve : 	(-0.0131868107536 -0.0246707876912 0.0490873852123) : omega : 	0.0575094490319 : d : 	(-0.180395721254 -0.337496656517 0.923879532511)
	I19 : dAve : 	(-0.0177464617977 -0.0216241262672 0.0490873852123) : omega : 	0.0575094490319 : d : 	(-0.242771799453 -0.295818293547 0.923879532511)
	I20 : dAve : 	(-0.0216241262672 -0.0177464617977 0.0490873852123) : omega : 	0.0575094490319 : d : 	(-0.295818293547 -0.242771799453 0.923879532511)
	I21 : dAve : 	(-0.0246707876912 -0.0131868107536 0.0490873852123) : omega : 	0.0575094490319 : d : 	(-0.337496656517 -0.180395721254 0.923879532511)
	I22 : dAve : 	(-0.0267693645798 -0.00812039796756 0.0490873852123) : omega : 	0.0575094490319 : d : 	(-0.366205212247 -0.111087136655 0.923879532511)
	I23 : dAve : 	(-0.0278392098 -0.00274192284156 0.0490873852123) : omega : 	0.0575094490319 : d : 	(-0.38084070704 -0.0375095356919 0.923879532511)
	I24 : dAve : 	(-0.0278392098 0.00274192284156 0.0490873852123) : omega : 	0.0575094490319 : d : 	(-0.38084070704 0.0375095356919 0.923879532511)
	I25 : dAve : 	(-0.0267693645798 0.00812039796756 0.0490873852123) : omega : 	0.0575094490319 : d : 	(-0.366205212247 0.111087136655 0.923879532511)
	I26 : dAve : 	(-0.0246707876912 0.0131868107536 0.0490873852123) : omega : 	0.0575094490319 : d : 	(-0.337496656517 0.180395721254 0.923879532511)
	I27 : dAve : 	(-0.0216241262672 0.0177464617977 0.0490873852123) : omega : 	0.0575094490319 : d : 	(-0.295818293547 0.242771799453 0.923879532511)
	I28 : dAve : 	(-0.0177464617977 0.0216241262672 0.0490873852123) : omega : 	0.0575094490319 : d : 	(-0.242771799453 0.295818293547 0.923879532511)
	I29 : dAve : 	(-0.0131868107536 0.0246707876912 0.0490873852123) : omega : 	0.0575094490319 : d : 	(-0.180395721254 0.337496656517 0.923879532511)
	I30 : dAve : 	(-0.00812039796756 0.0267693645798 0.0490873852123) : omega : 	0.0575094490319 : d : 	(-0.111087136655 0.366205212247 0.923879532511)
	I31 : dAve : 	(-0.00274192284156 0.0278392098 0.0490873852123) : omega : 	0.0575094490319 : d : 	(-0.0375095356919 0.38084070704 0.923879532511)
	I32 : dAve : 	(0.0123492826399 0.125384370808 0.0490873852123) : omega : 	0.138840091817 : d : 	(0.0905560297858 0.91943080004 0.382683432365)
	I33 : dAve : 	(0.0365732719135 0.120565919754 0.0490873852123) : omega : 	0.138840091817 : d : 	(0.268188071917 0.884097590017 0.382683432365)
	I34 : dAve : 	(0.059391770858 0.111114188018 0.0490873852123) : omega : 	0.138840091817 : d : 	(0.435513796846 0.814789005418 0.382683432365)
	I35 : dAve : 	(0.0799278773557 0.0973924003507 0.0490873852123) : omega : 	0.138840091817 : d : 	(0.586102970801 0.714168536279 0.382683432365)
	I36 : dAve : 	(0.0973924003507 0.0799278773557 0.0490873852123) : omega : 	0.138840091817 : d : 	(0.714168536279 0.586102970801 0.382683432365)
	I37 : dAve : 	(0.111114188018 0.059391770858 0.0490873852123) : omega : 	0.138840091817 : d : 	(0.814789005418 0.435513796846 0.382683432365)
	I38 : dAve : 	(0.120565919754 0.0365732719135 0.0490873852123) : omega : 	0.138840091817 : d : 	(0.884097590017 0.268188071917 0.382683432365)
	I39 : dAve : 	(0.125384370808 0.0123492826399 0.0490873852123) : omega : 	0.138840091817 : d : 	(0.91943080004 0.0905560297858 0.382683432365)
	I40 : dAve : 	(0.125384370808 -0.0123492826399 0.0490873852123) : omega : 	0.138840091817 : d : 	(0.91943080004 -0.0905560297858 0.382683432365)
	I41 : dAve : 	(0.120565919754 -0.0365732719135 0.0490873852123) : omega : 	0.138840091817 : d : 	(0.884097590017 -0.268188071917 0.382683432365)
	I42 : dAve : 	(0.111114188018 -0.059391770858 0.0490873852123) : omega : 	0.138840091817 : d : 	(0.814789005418 -0.435513796846 0.382683432365)
	I43 : dAve : 	(0.0973924003507 -0.0799278773557 0.0490873852123) : omega : 	0.138840091817 : d : 	(0.714168536279 -0.586102970801 0.382683432365)
	I44 : dAve : 	(0.0799278773557 -0.0973924003507 0.0490873852123) : omega : 	0.138840091817 : d : 	(0.586102970801 -0.714168536279 0.382683432365)
	I45 : dAve : 	(0.059391770858 -0.111114188018 0.0490873852123) : omega : 	0.138840091817 : d : 	(0.435513796846 -0.814789005418 0.382683432365)
	I46 : dAve : 	(0.0365732719135 -0.120565919754 0.0490873852123) : omega : 	0.138840091817 : d : 	(0.268188071917 -0.884097590017 0.382683432365)
	I47 : dAve : 	(0.0123492826399 -0.125384370808 0.0490873852123) : omega : 	0.138840091817 : d : 	(0.0905560297858 -0.91943080004 0.382683432365)
	I48 : dAve : 	(-0.0123492826399 -0.125384370808 0.0490873852123) : omega : 	0.138840091817 : d : 	(-0.0905560297858 -0.91943080004 0.382683432365)
	I49 : dAve : 	(-0.0365732719135 -0.120565919754 0.0490873852123) : omega : 	0.138840091817 : d : 	(-0.268188071917 -0.884097590017 0.382683432365)
	I50 : dAve : 	(-0.059391770858 -0.111114188018 0.0490873852123) : omega : 	0.138840091817 : d : 	(-0.435513796846 -0.814789005418 0.382683432365)
	I51 : dAve : 	(-0.0799278773557 -0.0973924003507 0.0490873852123) : omega : 	0.138840091817 : d : 	(-0.586102970801 -0.714168536279 0.382683432365)
	I52 : dAve : 	(-0.0973924003507 -0.0799278773557 0.0490873852123) : omega : 	0.138840091817 : d : 	(-0.714168536279 -0.586102970801 0.382683432365)
	I53 : dAve : 	(-0.111114188018 -0.059391770858 0.0490873852123) : omega : 	0.138840091817 : d : 	(-0.814789005418 -0.435513796846 0.382683432365)
	I54 : dAve : 	(-0.120565919754 -0.0365732719135 0.0490873852123) : omega : 	0.138840091817 : d : 	(-0.884097590017 -0.268188071917 0.382683432365)
	I55 : dAve : 	(-0.125384370808 -0.0123492826399 0.0490873852123) : omega : 	0.138840091817 : d : 	(-0.91943080004 -0.0905560297858 0.382683432365)
	I56 : dAve : 	(-0.125384370808 0.0123492826399 0.0490873852123) : omega : 	0.138840091817 : d : 	(-0.91943080004 0.0905560297858 0.382683432365)
	I57 : dAve : 	(-0.120565919754 0.0365732719135 0.0490873852123) : omega : 	0.138840091817 : d : 	(-0.884097590017 0.268188071917 0.382683432365)
	I58 : dAve : 	(-0.111114188018 0.059391770858 0.0490873852123) : omega : 	0.138840091817 : d : 	(-0.814789005418 0.435513796846 0.382683432365)
	I59 : dAve : 	(-0.0973924003507 0.0799278773557 0.0490873852123) : omega : 	0.138840091817 : d : 	(-0.714168536279 0.586102970801 0.382683432365)
	I60 : dAve : 	(-0.0799278773557 0.0973924003507 0.0490873852123) : omega : 	0.138840091817 : d : 	(-0.586102970801 0.714168536279 0.382683432365)
	I61 : dAve : 	(-0.059391770858 0.111114188018 0.0490873852123) : omega : 	0.138840091817 : d : 	(-0.435513796846 0.814789005418 0.382683432365)
	I62 : dAve : 	(-0.0365732719135 0.120565919754 0.0490873852123) : omega : 	0.138840091817 : d : 	(-0.268188071917 0.884097590017 0.382683432365)
	I63 : dAve : 	(-0.0123492826399 0.125384370808 0.0490873852123) : omega : 	0.138840091817 : d : 	(-0.0905560297858 0.91943080004 0.382683432365)
	I64 : dAve : 	(0.0123492826399 0.125384370808 -0.0490873852123) : omega : 	0.138840091817 : d : 	(0.0905560297858 0.91943080004 -0.382683432365)
	I65 : dAve : 	(0.0365732719135 0.120565919754 -0.0490873852123) : omega : 	0.138840091817 : d : 	(0.268188071917 0.884097590017 -0.382683432365)
	I66 : dAve : 	(0.059391770858 0.111114188018 -0.0490873852123) : omega : 	0.138840091817 : d : 	(0.435513796846 0.814789005418 -0.382683432365)
	I67 : dAve : 	(0.0799278773557 0.0973924003507 -0.0490873852123) : omega : 	0.138840091817 : d : 	(0.586102970801 0.714168536279 -0.382683432365)
	I68 : dAve : 	(0.0973924003507 0.0799278773557 -0.0490873852123) : omega : 	0.138840091817 : d : 	(0.714168536279 0.586102970801 -0.382683432365)
	I69 : dAve : 	(0.111114188018 0.059391770858 -0.0490873852123) : omega : 	0.138840091817 : d : 	(0.814789005418 0.435513796846 -0.382683432365)
	I70 : dAve : 	(0.120565919754 0.0365732719135 -0.0490873852123) : omega : 	0.138840091817 : d : 	(0.884097590017 0.268188071917 -0.382683432365)
	I71 : dAve : 	(0.125384370808 0.0123492826399 -0.0490873852123) : omega : 	0.138840091817 : d : 	(0.91943080004 0.0905560297858 -0.382683432365)
	I72 : dAve : 	(0.125384370808 -0.0123492826399 -0.0490873852123) : omega : 	0.138840091817 : d : 	(0.91943080004 -0.0905560297858 -0.382683432365)
	I73 : dAve : 	(0.120565919754 -0.0365732719135 -0.0490873852123) : omega : 	0.138840091817 : d : 	(0.884097590017 -0.268188071917 -0.382683432365)
	I74 : dAve : 	(0.111114188018 -0.059391770858 -0.0490873852123) : omega : 	0.138840091817 : d : 	(0.814789005418 -0.435513796846 -0.382683432365)
	I75 : dAve : 	(0.0973924003507 -0.0799278773557 -0.0490873852123) : omega : 	0.138840091817 : d : 	(0.714168536279 -0.586102970801 -0.382683432365)
	I76 : dAve : 	(0.0799278773557 -0.0973924003507 -0.0490873852123) : omega : 	0.138840091817 : d : 	(0.586102970801 -0.714168536279 -0.382683432365)
	I77 : dAve : 	(0.059391770858 -0.111114188018 -0.0490873852123) : omega : 	0.138840091817 : d : 	(0.435513796846 -0.814789005418 -0.382683432365)
	I78 : dAve : 	(0.0365732719135 -0.120565919754 -0.0490873852123) : omega : 	0.138840091817 : d : 	(0.268188071917 -0.884097590017 -0.382683432365)
	I79 : dAve : 	(0.0123492826399 -0.125384370808 -0.0490873852123) : omega : 	0.138840091817 : d : 	(0.0905560297858 -0.91943080004 -0.382683432365)
	I80 : dAve : 	(-0.0123492826399 -0.125384370808 -0.0490873852123) : omega : 	0.138840091817 : d : 	(-0.0905560297858 -0.91943080004 -0.382683432365)
	I81 : dAve : 	(-0.0365732719135 -0.120565919754 -0.0490873852123) : omega : 	0.138840091817 : d : 	(-0.268188071917 -0.884097590017 -0.382683432365)
	I82 : dAve : 	(-0.059391770858 -0.111114188018 -0.0490873852123) : omega : 	0.138840091817 : d : 	(-0.435513796846 -0.814789005418 -0.382683432365)
	I83 : dAve : 	(-0.0799278773557 -0.0973924003507 -0.0490873852123) : omega : 	0.138840091817 : d : 	(-0.586102970801 -0.714168536279 -0.382683432365)
	I84 : dAve : 	(-0.0973924003507 -0.0799278773557 -0.0490873852123) : omega : 	0.138840091817 : d : 	(-0.714168536279 -0.586102970801 -0.382683432365)
	I85 : dAve : 	(-0.111114188018 -0.059391770858 -0.0490873852123) : omega : 	0.138840091817 : d : 	(-0.814789005418 -0.435513796846 -0.382683432365)
	I86 : dAve : 	(-0.120565919754 -0.0365732719135 -0.0490873852123) : omega : 	0.138840091817 : d : 	(-0.884097590017 -0.268188071917 -0.382683432365)
	I87 : dAve : 	(-0.125384370808 -0.0123492826399 -0.0490873852123) : omega : 	0.138840091817 : d : 	(-0.91943080004 -0.0905560297858 -0.382683432365)
	I88 : dAve : 	(-0.125384370808 0.0123492826399 -0.0490873852123) : omega : 	0.138840091817 : d : 	(-0.91943080004 0.0905560297858 -0.382683432365)
	I89 : dAve : 	(-0.120565919754 0.0365732719135 -0.0490873852123) : omega : 	0.138840091817 : d : 	(-0.884097590017 0.268188071917 -0.382683432365)
	I90 : dAve : 	(-0.111114188018 0.059391770858 -0.0490873852123) : omega : 	0.138840091817 : d : 	(-0.814789005418 0.435513796846 -0.382683432365)
	I91 : dAve : 	(-0.0973924003507 0.0799278773557 -0.0490873852123) : omega : 	0.138840091817 : d : 	(-0.714168536279 0.586102970801 -0.382683432365)
	I92 : dAve : 	(-0.0799278773557 0.0973924003507 -0.0490873852123) : omega : 	0.138840091817 : d : 	(-0.586102970801 0.714168536279 -0.382683432365)
	I93 : dAve : 	(-0.059391770858 0.111114188018 -0.0490873852123) : omega : 	0.138840091817 : d : 	(-0.435513796846 0.814789005418 -0.382683432365)
	I94 : dAve : 	(-0.0365732719135 0.120565919754 -0.0490873852123) : omega : 	0.138840091817 : d : 	(-0.268188071917 0.884097590017 -0.382683432365)
	I95 : dAve : 	(-0.0123492826399 0.125384370808 -0.0490873852123) : omega : 	0.138840091817 : d : 	(-0.0905560297858 0.91943080004 -0.382683432365)
	I96 : dAve : 	(0.00274192284156 0.0278392098 -0.0490873852123) : omega : 	0.0575094490319 : d : 	(0.0375095356919 0.38084070704 -0.923879532511)
	I97 : dAve : 	(0.00812039796756 0.0267693645798 -0.0490873852123) : omega : 	0.0575094490319 : d : 	(0.111087136655 0.366205212247 -0.923879532511)
	I98 : dAve : 	(0.0131868107536 0.0246707876912 -0.0490873852123) : omega : 	0.0575094490319 : d : 	(0.180395721254 0.337496656517 -0.923879532511)
	I99 : dAve : 	(0.0177464617977 0.0216241262672 -0.0490873852123) : omega : 	0.0575094490319 : d : 	(0.242771799453 0.295818293547 -0.923879532511)
	I100 : dAve : 	(0.0216241262672 0.0177464617977 -0.0490873852123) : omega : 	0.0575094490319 : d : 	(0.295818293547 0.242771799453 -0.923879532511)
	I101 : dAve : 	(0.0246707876912 0.0131868107536 -0.0490873852123) : omega : 	0.0575094490319 : d : 	(0.337496656517 0.180395721254 -0.923879532511)
	I102 : dAve : 	(0.0267693645798 0.00812039796756 -0.0490873852123) : omega : 	0.0575094490319 : d : 	(0.366205212247 0.111087136655 -0.923879532511)
	I103 : dAve : 	(0.0278392098 0.00274192284156 -0.0490873852123) : omega : 	0.0575094490319 : d : 	(0.38084070704 0.0375095356919 -0.923879532511)
	I104 : dAve : 	(0.0278392098 -0.00274192284156 -0.0490873852123) : omega : 	0.0575094490319 : d : 	(0.38084070704 -0.0375095356919 -0.923879532511)
	I105 : dAve : 	(0.0267693645798 -0.00812039796756 -0.0490873852123) : omega : 	0.0575094490319 : d : 	(0.366205212247 -0.111087136655 -0.923879532511)
	I106 : dAve : 	(0.0246707876912 -0.0131868107536 -0.0490873852123) : omega : 	0.0575094490319 : d : 	(0.337496656517 -0.180395721254 -0.923879532511)
	I107 : dAve : 	(0.0216241262672 -0.0177464617977 -0.0490873852123) : omega : 	0.0575094490319 : d : 	(0.295818293547 -0.242771799453 -0.923879532511)
	I108 : dAve : 	(0.0177464617977 -0.0216241262672 -0.0490873852123) : omega : 	0.0575094490319 : d : 	(0.242771799453 -0.295818293547 -0.923879532511)
	I109 : dAve : 	(0.0131868107536 -0.0246707876912 -0.0490873852123) : omega : 	0.0575094490319 : d : 	(0.180395721254 -0.337496656517 -0.923879532511)
	I110 : dAve : 	(0.00812039796756 -0.0267693645798 -0.0490873852123) : omega : 	0.0575094490319 : d : 	(0.111087136655 -0.366205212247 -0.923879532511)
	I111 : dAve : 	(0.00274192284156 -0.0278392098 -0.0490873852123) : omega : 	0.0575094490319 : d : 	(0.0375095356919 -0.38084070704 -0.923879532511)
	I112 : dAve : 	(-0.00274192284156 -0.0278392098 -0.0490873852123) : omega : 	0.0575094490319 : d : 	(-0.0375095356919 -0.38084070704 -0.923879532511)
	I113 : dAve : 	(-0.00812039796756 -0.0267693645798 -0.0490873852123) : omega : 	0.0575094490319 : d : 	(-0.111087136655 -0.366205212247 -0.923879532511)
	I114 : dAve : 	(-0.0131868107536 -0.0246707876912 -0.0490873852123) : omega : 	0.0575094490319 : d : 	(-0.180395721254 -0.337496656517 -0.923879532511)
	I115 : dAve : 	(-0.0177464617977 -0.0216241262672 -0.0490873852123) : omega : 	0.0575094490319 : d : 	(-0.242771799453 -0.295818293547 -0.923879532511)
	I116 : dAve : 	(-0.0216241262672 -0.0177464617977 -0.0490873852123) : omega : 	0.0575094490319 : d : 	(-0.295818293547 -0.242771799453 -0.923879532511)
	I117 : dAve : 	(-0.0246707876912 -0.0131868107536 -0.0490873852123) : omega : 	0.0575094490319 : d : 	(-0.337496656517 -0.180395721254 -0.923879532511)
	I118 : dAve : 	(-0.0267693645798 -0.00812039796756 -0.0490873852123) : omega : 	0.0575094490319 : d : 	(-0.366205212247 -0.111087136655 -0.923879532511)
	I119 : dAve : 	(-0.0278392098 -0.00274192284156 -0.0490873852123) : omega : 	0.0575094490319 : d : 	(-0.38084070704 -0.0375095356919 -0.923879532511)
	I120 : dAve : 	(-0.0278392098 0.00274192284156 -0.0490873852123) : omega : 	0.0575094490319 : d : 	(-0.38084070704 0.0375095356919 -0.923879532511)
	I121 : dAve : 	(-0.0267693645798 0.00812039796756 -0.0490873852123) : omega : 	0.0575094490319 : d : 	(-0.366205212247 0.111087136655 -0.923879532511)
	I122 : dAve : 	(-0.0246707876912 0.0131868107536 -0.0490873852123) : omega : 	0.0575094490319 : d : 	(-0.337496656517 0.180395721254 -0.923879532511)
	I123 : dAve : 	(-0.0216241262672 0.0177464617977 -0.0490873852123) : omega : 	0.0575094490319 : d : 	(-0.295818293547 0.242771799453 -0.923879532511)
	I124 : dAve : 	(-0.0177464617977 0.0216241262672 -0.0490873852123) : omega : 	0.0575094490319 : d : 	(-0.242771799453 0.295818293547 -0.923879532511)
	I125 : dAve : 	(-0.0131868107536 0.0246707876912 -0.0490873852123) : omega : 	0.0575094490319 : d : 	(-0.180395721254 0.337496656517 -0.923879532511)
	I126 : dAve : 	(-0.00812039796756 0.0267693645798 -0.0490873852123) : omega : 	0.0575094490319 : d : 	(-0.111087136655 0.366205212247 -0.923879532511)
	I127 : dAve : 	(-0.00274192284156 0.0278392098 -0.0490873852123) : omega : 	0.0575094490319 : d : 	(-0.0375095356919 0.38084070704 -0.923879532511)
Total omega : 12.5663706144

Courant Number mean: 0 max: 0

Starting time loop

Sampled set:
    data -> csv

Sampled set:
    data -> csv

Sampled surface:
    yNormal -> ensight
        sampledCuttingPlane: yNormal : plane:(0 1 0) (0 0 0) offsets:(0)

Sampled surface:
    zNormal -> ensight
        sampledCuttingPlane: zNormal : plane:(0 0 1) (0 0 0) offsets:(0)

Sampled surface:
    patchAll -> ensight
        sampledPatch: patchAll : patches:(".*WW.*")

deltaT = 1
Time = 1

PIMPLE: iteration 1
Radiation solver iter: 0
DILUPBiCGStab:  Solving for ILambda_0_0, Initial residual = 1, Final residual = 5.67657489417e-74, No Iterations 3
DILUPBiCGStab:  Solving for ILambda_1_0, Initial residual = 1, Final residual = 9.29166983053e-74, No Iterations 3
DILUPBiCGStab:  Solving for ILambda_2_0, Initial residual = 1, Final residual = 2.01798145511e-73, No Iterations 3
DILUPBiCGStab:  Solving for ILambda_3_0, Initial residual = 1, Final residual = 3.7752781684e-74, No Iterations 3
DILUPBiCGStab:  Solving for ILambda_4_0, Initial residual = 1, Final residual = 6.4322457376e-74, No Iterations 3
DILUPBiCGStab:  Solving for ILambda_5_0, Initial residual = 1, Final residual = 2.96457114413e-74, No Iterations 3
DILUPBiCGStab:  Solving for ILambda_6_0, Initial residual = 1, Final residual = 6.13689213963e-74, No Iterations 3
DILUPBiCGStab:  Solving for ILambda_7_0, Initial residual = 1, Final residual = 1.03473595153e-73, No Iterations 3
DILUPBiCGStab:  Solving for ILambda_8_0, Initial residual = 1, Final residual = 2.45391689702e-61, No Iterations 77
DILUPBiCGStab:  Solving for ILambda_9_0, Initial residual = 1, Final residual = 7.17755930723e-61, No Iterations 127
DILUPBiCGStab:  Solving for ILambda_10_0, Initial residual = 1, Final residual = 4.87606378644e-61, No Iterations 151
DILUPBiCGStab:  Solving for ILambda_11_0, Initial residual = 1, Final residual = 3.25798856445e-61, No Iterations 160
DILUPBiCGStab:  Solving for ILambda_12_0, Initial residual = 1, Final residual = 2.77930614072e-61, No Iterations 160
DILUPBiCGStab:  Solving for ILambda_13_0, Initial residual = 1, Final residual = 1.15396118276e-61, No Iterations 155
DILUPBiCGStab:  Solving for ILambda_14_0, Initial residual = 1, Final residual = 3.04729775923e-61, No Iterations 126
DILUPBiCGStab:  Solving for ILambda_15_0, Initial residual = 1, Final residual = 1.7941112227e-61, No Iterations 78
DILUPBiCGStab:  Solving for ILambda_16_0, Initial residual = 1, Final residual = 5.14741189584e-61, No Iterations 47
DILUPBiCGStab:  Solving for ILambda_17_0, Initial residual = 1, Final residual = 7.65076607457e-61, No Iterations 48
DILUPBiCGStab:  Solving for ILambda_18_0, Initial residual = 1, Final residual = 6.60206357961e-61, No Iterations 49
DILUPBiCGStab:  Solving for ILambda_19_0, Initial residual = 1, Final residual = 3.45157421423e-61, No Iterations 50
DILUPBiCGStab:  Solving for ILambda_20_0, Initial residual = 1, Final residual = 4.1646290608e-61, No Iterations 51
DILUPBiCGStab:  Solving for ILambda_21_0, Initial residual = 1, Final residual = 2.0583650467e-61, No Iterations 50
DILUPBiCGStab:  Solving for ILambda_22_0, Initial residual = 1, Final residual = 8.18245099233e-61, No Iterations 48
DILUPBiCGStab:  Solving for ILambda_23_0, Initial residual = 1, Final residual = 5.83620027405e-61, No Iterations 47
DILUPBiCGStab:  Solving for ILambda_24_0, Initial residual = 1, Final residual = 2.56929723849e-61, No Iterations 78
DILUPBiCGStab:  Solving for ILambda_25_0, Initial residual = 1, Final residual = 4.75203117574e-61, No Iterations 126
DILUPBiCGStab:  Solving for ILambda_26_0, Initial residual = 1, Final residual = 1.95402034653e-62, No Iterations 153
DILUPBiCGStab:  Solving for ILambda_27_0, Initial residual = 1, Final residual = 3.27945745186e-61, No Iterations 161
DILUPBiCGStab:  Solving for ILambda_28_0, Initial residual = 1, Final residual = 5.93907257875e-61, No Iterations 161
DILUPBiCGStab:  Solving for ILambda_29_0, Initial residual = 1, Final residual = 4.88970262047e-61, No Iterations 152
DILUPBiCGStab:  Solving for ILambda_30_0, Initial residual = 1, Final residual = 4.18966009732e-61, No Iterations 128
DILUPBiCGStab:  Solving for ILambda_31_0, Initial residual = 1, Final residual = 4.01952161001e-61, No Iterations 77
DILUPBiCGStab:  Solving for ILambda_32_0, Initial residual = 1, Final residual = 4.0158395753e-71, No Iterations 3
DILUPBiCGStab:  Solving for ILambda_33_0, Initial residual = 1, Final residual = 5.64308010045e-71, No Iterations 3
DILUPBiCGStab:  Solving for ILambda_34_0, Initial residual = 1, Final residual = 4.56485075313e-71, No Iterations 3
DILUPBiCGStab:  Solving for ILambda_35_0, Initial residual = 1, Final residual = 4.17667260846e-71, No Iterations 3
DILUPBiCGStab:  Solving for ILambda_36_0, Initial residual = 1, Final residual = 1.34121574301e-71, No Iterations 3
DILUPBiCGStab:  Solving for ILambda_37_0, Initial residual = 1, Final residual = 6.5381060143e-71, No Iterations 3
DILUPBiCGStab:  Solving for ILambda_38_0, Initial residual = 1, Final residual = 2.1779330303e-72, No Iterations 3
DILUPBiCGStab:  Solving for ILambda_39_0, Initial residual = 1, Final residual = 2.04268125894e-71, No Iterations 3
DILUPBiCGStab:  Solving for ILambda_40_0, Initial residual = 1, Final residual = 6.25893361867e-61, No Iterations 83
DILUPBiCGStab:  Solving for ILambda_41_0, Initial residual = 1, Final residual = 6.86483387395e-61, No Iterations 128
DILUPBiCGStab:  Solving for ILambda_42_0, Initial residual = 1, Final residual = 4.52479579755e-61, No Iterations 155
DILUPBiCGStab:  Solving for ILambda_43_0, Initial residual = 1, Final residual = 8.23037495664e-61, No Iterations 173
DILUPBiCGStab:  Solving for ILambda_44_0, Initial residual = 1, Final residual = 1.71043520954e-61, No Iterations 171
DILUPBiCGStab:  Solving for ILambda_45_0, Initial residual = 1, Final residual = 4.26551365287e-61, No Iterations 155
DILUPBiCGStab:  Solving for ILambda_46_0, Initial residual = 1, Final residual = 4.40310508145e-61, No Iterations 122
DILUPBiCGStab:  Solving for ILambda_47_0, Initial residual = 1, Final residual = 2.72910659055e-61, No Iterations 86
DILUPBiCGStab:  Solving for ILambda_48_0, Initial residual = 1, Final residual = 6.55779774986e-61, No Iterations 60
DILUPBiCGStab:  Solving for ILambda_49_0, Initial residual = 1, Final residual = 1.04887146002e-61, No Iterations 67
DILUPBiCGStab:  Solving for ILambda_50_0, Initial residual = 1, Final residual = 7.39052613884e-61, No Iterations 69
DILUPBiCGStab:  Solving for ILambda_51_0, Initial residual = 1, Final residual = 7.8401187523e-61, No Iterations 71
DILUPBiCGStab:  Solving for ILambda_52_0, Initial residual = 1, Final residual = 7.57697069139e-62, No Iterations 70
DILUPBiCGStab:  Solving for ILambda_53_0, Initial residual = 1, Final residual = 1.74932438832e-61, No Iterations 69
DILUPBiCGStab:  Solving for ILambda_54_0, Initial residual = 1, Final residual = 1.46611250811e-61, No Iterations 67
DILUPBiCGStab:  Solving for ILambda_55_0, Initial residual = 1, Final residual = 1.57542995283e-61, No Iterations 60
DILUPBiCGStab:  Solving for ILambda_56_0, Initial residual = 1, Final residual = 1.18332221099e-61, No Iterations 87
DILUPBiCGStab:  Solving for ILambda_57_0, Initial residual = 1, Final residual = 8.68309731218e-61, No Iterations 120
DILUPBiCGStab:  Solving for ILambda_58_0, Initial residual = 1, Final residual = 9.11489975894e-61, No Iterations 156
DILUPBiCGStab:  Solving for ILambda_59_0, Initial residual = 1, Final residual = 4.73706638413e-61, No Iterations 174
DILUPBiCGStab:  Solving for ILambda_60_0, Initial residual = 1, Final residual = 3.93654001197e-61, No Iterations 178
DILUPBiCGStab:  Solving for ILambda_61_0, Initial residual = 1, Final residual = 8.2999362359e-61, No Iterations 154
DILUPBiCGStab:  Solving for ILambda_62_0, Initial residual = 1, Final residual = 8.78884535777e-61, No Iterations 130
DILUPBiCGStab:  Solving for ILambda_63_0, Initial residual = 1, Final residual = 8.10547638466e-61, No Iterations 82
DILUPBiCGStab:  Solving for ILambda_64_0, Initial residual = 1, Final residual = 8.9312973431e-62, No Iterations 56
DILUPBiCGStab:  Solving for ILambda_65_0, Initial residual = 1, Final residual = 4.32101654814e-61, No Iterations 60
DILUPBiCGStab:  Solving for ILambda_66_0, Initial residual = 1, Final residual = 4.68829567584e-62, No Iterations 61
DILUPBiCGStab:  Solving for ILambda_67_0, Initial residual = 1, Final residual = 5.03203096926e-61, No Iterations 64
DILUPBiCGStab:  Solving for ILambda_68_0, Initial residual = 1, Final residual = 4.53570575324e-61, No Iterations 63
DILUPBiCGStab:  Solving for ILambda_69_0, Initial residual = 1, Final residual = 5.62909077747e-61, No Iterations 61
DILUPBiCGStab:  Solving for ILambda_70_0, Initial residual = 1, Final residual = 8.7849783989e-61, No Iterations 59
DILUPBiCGStab:  Solving for ILambda_71_0, Initial residual = 1, Final residual = 5.94903996609e-61, No Iterations 56
DILUPBiCGStab:  Solving for ILambda_72_0, Initial residual = 1, Final residual = 7.68133929125e-61, No Iterations 85
DILUPBiCGStab:  Solving for ILambda_73_0, Initial residual = 1, Final residual = 2.51825693462e-61, No Iterations 120
DILUPBiCGStab:  Solving for ILambda_74_0, Initial residual = 1, Final residual = 7.03397290219e-61, No Iterations 153
DILUPBiCGStab:  Solving for ILambda_75_0, Initial residual = 1, Final residual = 3.59599715678e-61, No Iterations 171
DILUPBiCGStab:  Solving for ILambda_76_0, Initial residual = 1, Final residual = 1.2236692277e-61, No Iterations 174
DILUPBiCGStab:  Solving for ILambda_77_0, Initial residual = 1, Final residual = 3.60906646364e-61, No Iterations 154
DILUPBiCGStab:  Solving for ILambda_78_0, Initial residual = 1, Final residual = 4.21995561291e-61, No Iterations 128
DILUPBiCGStab:  Solving for ILambda_79_0, Initial residual = 1, Final residual = 5.58852736145e-61, No Iterations 82
DILUPBiCGStab:  Solving for ILambda_80_0, Initial residual = 1, Final residual = 1.26665472457e-69, No Iterations 3
DILUPBiCGStab:  Solving for ILambda_81_0, Initial residual = 1, Final residual = 6.03724013468e-71, No Iterations 3
DILUPBiCGStab:  Solving for ILambda_82_0, Initial residual = 1, Final residual = 6.08818321744e-71, No Iterations 3
DILUPBiCGStab:  Solving for ILambda_83_0, Initial residual = 1, Final residual = 7.81724952266e-71, No Iterations 3
DILUPBiCGStab:  Solving for ILambda_84_0, Initial residual = 1, Final residual = 3.08006608179e-71, No Iterations 3
DILUPBiCGStab:  Solving for ILambda_85_0, Initial residual = 1, Final residual = 1.15190962648e-70, No Iterations 3
DILUPBiCGStab:  Solving for ILambda_86_0, Initial residual = 1, Final residual = 1.93441853382e-71, No Iterations 3
DILUPBiCGStab:  Solving for ILambda_87_0, Initial residual = 1, Final residual = 2.32209165289e-70, No Iterations 3
DILUPBiCGStab:  Solving for ILambda_88_0, Initial residual = 1, Final residual = 3.70820008562e-61, No Iterations 82
DILUPBiCGStab:  Solving for ILambda_89_0, Initial residual = 1, Final residual = 7.26051464346e-61, No Iterations 128
DILUPBiCGStab:  Solving for ILambda_90_0, Initial residual = 1, Final residual = 8.49876506688e-61, No Iterations 157
DILUPBiCGStab:  Solving for ILambda_91_0, Initial residual = 1, Final residual = 7.63219490323e-61, No Iterations 172
DILUPBiCGStab:  Solving for ILambda_92_0, Initial residual = 1, Final residual = 8.85522132475e-61, No Iterations 170
DILUPBiCGStab:  Solving for ILambda_93_0, Initial residual = 1, Final residual = 6.08683290029e-61, No Iterations 155
DILUPBiCGStab:  Solving for ILambda_94_0, Initial residual = 1, Final residual = 3.94367399913e-61, No Iterations 121
DILUPBiCGStab:  Solving for ILambda_95_0, Initial residual = 1, Final residual = 3.78385688752e-61, No Iterations 87
DILUPBiCGStab:  Solving for ILambda_96_0, Initial residual = 1, Final residual = 1.68685101338e-61, No Iterations 45
DILUPBiCGStab:  Solving for ILambda_97_0, Initial residual = 1, Final residual = 2.6472279859e-61, No Iterations 47
DILUPBiCGStab:  Solving for ILambda_98_0, Initial residual = 1, Final residual = 8.71822149792e-62, No Iterations 48
DILUPBiCGStab:  Solving for ILambda_99_0, Initial residual = 1, Final residual = 9.04278377352e-61, No Iterations 48
DILUPBiCGStab:  Solving for ILambda_100_0, Initial residual = 1, Final residual = 7.62274208793e-62, No Iterations 48
DILUPBiCGStab:  Solving for ILambda_101_0, Initial residual = 1, Final residual = 3.21976443098e-61, No Iterations 48
DILUPBiCGStab:  Solving for ILambda_102_0, Initial residual = 1, Final residual = 4.77450708818e-61, No Iterations 47
DILUPBiCGStab:  Solving for ILambda_103_0, Initial residual = 1, Final residual = 1.19808322553e-61, No Iterations 45
DILUPBiCGStab:  Solving for ILambda_104_0, Initial residual = 1, Final residual = 4.74793716897e-61, No Iterations 77
DILUPBiCGStab:  Solving for ILambda_105_0, Initial residual = 1, Final residual = 8.80172096291e-61, No Iterations 126
DILUPBiCGStab:  Solving for ILambda_106_0, Initial residual = 1, Final residual = 8.85176606642e-61, No Iterations 152
DILUPBiCGStab:  Solving for ILambda_107_0, Initial residual = 1, Final residual = 3.86291597675e-61, No Iterations 162
DILUPBiCGStab:  Solving for ILambda_108_0, Initial residual = 1, Final residual = 5.4060711207e-61, No Iterations 159
DILUPBiCGStab:  Solving for ILambda_109_0, Initial residual = 1, Final residual = 5.77778615623e-61, No Iterations 152
DILUPBiCGStab:  Solving for ILambda_110_0, Initial residual = 1, Final residual = 4.16842799778e-61, No Iterations 127
DILUPBiCGStab:  Solving for ILambda_111_0, Initial residual = 1, Final residual = 1.74015806605e-61, No Iterations 78
DILUPBiCGStab:  Solving for ILambda_112_0, Initial residual = 1, Final residual = 2.28333167559e-72, No Iterations 3
DILUPBiCGStab:  Solving for ILambda_113_0, Initial residual = 1, Final residual = 1.90185390402e-72, No Iterations 3
DILUPBiCGStab:  Solving for ILambda_114_0, Initial residual = 1, Final residual = 9.01740188324e-72, No Iterations 3
DILUPBiCGStab:  Solving for ILambda_115_0, Initial residual = 1, Final residual = 9.59311836429e-72, No Iterations 3
DILUPBiCGStab:  Solving for ILambda_116_0, Initial residual = 1, Final residual = 7.19384023279e-72, No Iterations 3
DILUPBiCGStab:  Solving for ILambda_117_0, Initial residual = 1, Final residual = 1.32262790118e-71, No Iterations 3
DILUPBiCGStab:  Solving for ILambda_118_0, Initial residual = 1, Final residual = 2.62186038252e-71, No Iterations 3
DILUPBiCGStab:  Solving for ILambda_119_0, Initial residual = 1, Final residual = 1.12928299878e-72, No Iterations 3
DILUPBiCGStab:  Solving for ILambda_120_0, Initial residual = 1, Final residual = 9.81680580656e-61, No Iterations 77
DILUPBiCGStab:  Solving for ILambda_121_0, Initial residual = 1, Final residual = 6.49899837959e-61, No Iterations 129
DILUPBiCGStab:  Solving for ILambda_122_0, Initial residual = 1, Final residual = 3.20976151283e-61, No Iterations 151
DILUPBiCGStab:  Solving for ILambda_123_0, Initial residual = 1, Final residual = 3.42346740326e-61, No Iterations 161
DILUPBiCGStab:  Solving for ILambda_124_0, Initial residual = 1, Final residual = 4.73655684287e-61, No Iterations 161
DILUPBiCGStab:  Solving for ILambda_125_0, Initial residual = 1, Final residual = 3.58810957975e-61, No Iterations 152
DILUPBiCGStab:  Solving for ILambda_126_0, Initial residual = 1, Final residual = 2.4575123001e-61, No Iterations 126
DILUPBiCGStab:  Solving for ILambda_127_0, Initial residual = 1, Final residual = 1.20152928873e-61, No Iterations 77
Radiation solver iter: 1
DILUPBiCGStab:  Solving for ILambda_0_0, Initial residual = 2.85459036071e-16, Final residual = 8.83916552127e-62, No Iterations 2
DILUPBiCGStab:  Solving for ILambda_1_0, Initial residual = 3.88199197416e-16, Final residual = 1.56139195884e-75, No Iterations 2
DILUPBiCGStab:  Solving for ILambda_2_0, Initial residual = 3.88111233167e-16, Final residual = 3.27249599731e-61, No Iterations 2
DILUPBiCGStab:  Solving for ILambda_3_0, Initial residual = 4.1773341989e-16, Final residual = 1.60812083556e-61, No Iterations 2
DILUPBiCGStab:  Solving for ILambda_4_0, Initial residual = 4.17464593028e-16, Final residual = 4.39486975703e-61, No Iterations 2
DILUPBiCGStab:  Solving for ILambda_5_0, Initial residual = 4.20534657931e-16, Final residual = 1.63103678939e-61, No Iterations 2
DILUPBiCGStab:  Solving for ILambda_6_0, Initial residual = 4.34757391454e-16, Final residual = 3.68406895493e-61, No Iterations 2
DILUPBiCGStab:  Solving for ILambda_7_0, Initial residual = 3.34252840286e-16, Final residual = 1.87173406395e-61, No Iterations 2
DILUPBiCGStab:  Solving for ILambda_8_0, Initial residual = 2.74829563001e-15, Final residual = 9.22655167897e-61, No Iterations 54
DILUPBiCGStab:  Solving for ILambda_9_0, Initial residual = 1.08267887095e-14, Final residual = 3.8614030233e-61, No Iterations 89
DILUPBiCGStab:  Solving for ILambda_10_0, Initial residual = 1.62968660274e-13, Final residual = 8.67375518447e-61, No Iterations 104
DILUPBiCGStab:  Solving for ILambda_11_0, Initial residual = 1.32909521456e-13, Final residual = 4.68753543629e-61, No Iterations 125
DILUPBiCGStab:  Solving for ILambda_12_0, Initial residual = 1.62993515522e-13, Final residual = 4.60415413454e-61, No Iterations 121
DILUPBiCGStab:  Solving for ILambda_13_0, Initial residual = 9.71822360644e-14, Final residual = 7.44993658724e-61, No Iterations 104
DILUPBiCGStab:  Solving for ILambda_14_0, Initial residual = 5.70504733647e-15, Final residual = 4.13391409229e-61, No Iterations 87
DILUPBiCGStab:  Solving for ILambda_15_0, Initial residual = 2.77225099004e-15, Final residual = 8.11527182042e-62, No Iterations 56
DILUPBiCGStab:  Solving for ILambda_16_0, Initial residual = 1.96829335124e-15, Final residual = 5.30301560182e-61, No Iterations 30
DILUPBiCGStab:  Solving for ILambda_17_0, Initial residual = 2.63898055795e-15, Final residual = 4.74845712063e-61, No Iterations 32
DILUPBiCGStab:  Solving for ILambda_18_0, Initial residual = 1.86299230479e-14, Final residual = 5.1585736611e-61, No Iterations 34
DILUPBiCGStab:  Solving for ILambda_19_0, Initial residual = 1.70544649001e-14, Final residual = 1.70839958932e-61, No Iterations 30
DILUPBiCGStab:  Solving for ILambda_20_0, Initial residual = 1.71524027403e-14, Final residual = 4.2795847329e-61, No Iterations 34
DILUPBiCGStab:  Solving for ILambda_21_0, Initial residual = 1.80182245649e-14, Final residual = 2.91226289747e-61, No Iterations 34
DILUPBiCGStab:  Solving for ILambda_22_0, Initial residual = 2.54866605588e-15, Final residual = 4.63244678038e-61, No Iterations 29
DILUPBiCGStab:  Solving for ILambda_23_0, Initial residual = 1.84544681549e-15, Final residual = 2.47957272656e-61, No Iterations 30
DILUPBiCGStab:  Solving for ILambda_24_0, Initial residual = 2.73567303109e-15, Final residual = 7.27510978016e-61, No Iterations 54
DILUPBiCGStab:  Solving for ILambda_25_0, Initial residual = 6.07338612158e-15, Final residual = 7.01219808431e-61, No Iterations 87
DILUPBiCGStab:  Solving for ILambda_26_0, Initial residual = 1.00902535355e-13, Final residual = 9.74140492616e-61, No Iterations 105
DILUPBiCGStab:  Solving for ILambda_27_0, Initial residual = 8.81652428368e-14, Final residual = 9.57252603147e-61, No Iterations 123
DILUPBiCGStab:  Solving for ILambda_28_0, Initial residual = 9.13788641095e-14, Final residual = 5.48846778507e-61, No Iterations 124
DILUPBiCGStab:  Solving for ILambda_29_0, Initial residual = 2.11624854623e-13, Final residual = 4.08701727665e-61, No Iterations 106
DILUPBiCGStab:  Solving for ILambda_30_0, Initial residual = 1.00006675322e-14, Final residual = 5.48166589498e-61, No Iterations 92
DILUPBiCGStab:  Solving for ILambda_31_0, Initial residual = 2.73287927654e-15, Final residual = 7.28442354693e-61, No Iterations 53
DILUPBiCGStab:  Solving for ILambda_32_0, Initial residual = 1.66410604558e-15, Final residual = 2.99130816089e-74, No Iterations 2
DILUPBiCGStab:  Solving for ILambda_33_0, Initial residual = 1.72503994659e-15, Final residual = 3.47452341438e-75, No Iterations 2
DILUPBiCGStab:  Solving for ILambda_34_0, Initial residual = 1.75391112831e-15, Final residual = 1.09546521102e-75, No Iterations 2
DILUPBiCGStab:  Solving for ILambda_35_0, Initial residual = 1.80083153089e-15, Final residual = 1.72205225839e-74, No Iterations 2
DILUPBiCGStab:  Solving for ILambda_36_0, Initial residual = 1.77556357982e-15, Final residual = 4.06355815412e-75, No Iterations 2
DILUPBiCGStab:  Solving for ILambda_37_0, Initial residual = 1.92862596273e-15, Final residual = 1.32667024574e-74, No Iterations 2
DILUPBiCGStab:  Solving for ILambda_38_0, Initial residual = 1.85205876128e-15, Final residual = 8.67903748021e-61, No Iterations 2
DILUPBiCGStab:  Solving for ILambda_39_0, Initial residual = 1.80825856672e-15, Final residual = 8.76033914065e-75, No Iterations 2
DILUPBiCGStab:  Solving for ILambda_40_0, Initial residual = 1.30846727132e-14, Final residual = 6.96565727262e-61, No Iterations 58
DILUPBiCGStab:  Solving for ILambda_41_0, Initial residual = 3.22397804701e-14, Final residual = 9.66122633063e-61, No Iterations 93
DILUPBiCGStab:  Solving for ILambda_42_0, Initial residual = 1.10796358122e-13, Final residual = 5.43525586182e-61, No Iterations 116
DILUPBiCGStab:  Solving for ILambda_43_0, Initial residual = 1.97830432985e-13, Final residual = 9.60824528108e-61, No Iterations 128
DILUPBiCGStab:  Solving for ILambda_44_0, Initial residual = 2.06184001665e-13, Final residual = 6.45419821024e-61, No Iterations 127
DILUPBiCGStab:  Solving for ILambda_45_0, Initial residual = 1.05282464737e-13, Final residual = 2.30530840964e-62, No Iterations 115
DILUPBiCGStab:  Solving for ILambda_46_0, Initial residual = 7.06509879684e-12, Final residual = 4.88570028911e-61, No Iterations 92
DILUPBiCGStab:  Solving for ILambda_47_0, Initial residual = 2.50798650085e-13, Final residual = 4.69692660784e-61, No Iterations 61
DILUPBiCGStab:  Solving for ILambda_48_0, Initial residual = 1.82741061241e-14, Final residual = 3.56458202578e-61, No Iterations 41
DILUPBiCGStab:  Solving for ILambda_49_0, Initial residual = 5.27323668578e-14, Final residual = 1.50452211396e-61, No Iterations 39
DILUPBiCGStab:  Solving for ILambda_50_0, Initial residual = 3.58111652653e-13, Final residual = 3.05024005155e-61, No Iterations 43
DILUPBiCGStab:  Solving for ILambda_51_0, Initial residual = 2.91456262935e-13, Final residual = 9.28107012762e-61, No Iterations 41
DILUPBiCGStab:  Solving for ILambda_52_0, Initial residual = 2.64438926572e-13, Final residual = 1.47863518777e-61, No Iterations 41
DILUPBiCGStab:  Solving for ILambda_53_0, Initial residual = 3.24788899598e-13, Final residual = 2.56174659543e-61, No Iterations 44
DILUPBiCGStab:  Solving for ILambda_54_0, Initial residual = 4.81844127518e-14, Final residual = 5.46223110021e-61, No Iterations 42
DILUPBiCGStab:  Solving for ILambda_55_0, Initial residual = 1.69391991916e-14, Final residual = 5.45635154779e-61, No Iterations 37
DILUPBiCGStab:  Solving for ILambda_56_0, Initial residual = 2.50714751843e-13, Final residual = 5.44402161924e-61, No Iterations 62
DILUPBiCGStab:  Solving for ILambda_57_0, Initial residual = 1.51270253489e-13, Final residual = 9.45820733728e-62, No Iterations 90
DILUPBiCGStab:  Solving for ILambda_58_0, Initial residual = 1.33193642306e-13, Final residual = 4.83751263512e-61, No Iterations 111
DILUPBiCGStab:  Solving for ILambda_59_0, Initial residual = 1.72095009911e-13, Final residual = 9.31029051865e-61, No Iterations 129
DILUPBiCGStab:  Solving for ILambda_60_0, Initial residual = 5.90783973641e-12, Final residual = 7.39437166138e-61, No Iterations 126
DILUPBiCGStab:  Solving for ILambda_61_0, Initial residual = 9.79397840693e-14, Final residual = 3.48266762621e-61, No Iterations 118
DILUPBiCGStab:  Solving for ILambda_62_0, Initial residual = 2.61982670115e-14, Final residual = 5.41343108209e-61, No Iterations 93
DILUPBiCGStab:  Solving for ILambda_63_0, Initial residual = 1.3064805784e-14, Final residual = 6.1569382442e-61, No Iterations 58
DILUPBiCGStab:  Solving for ILambda_64_0, Initial residual = 3.5999462537e-14, Final residual = 4.05781692643e-61, No Iterations 41
DILUPBiCGStab:  Solving for ILambda_65_0, Initial residual = 1.84821865174e-14, Final residual = 4.31795586407e-61, No Iterations 38
DILUPBiCGStab:  Solving for ILambda_66_0, Initial residual = 1.36740111003e-14, Final residual = 2.24462650069e-61, No Iterations 41
DILUPBiCGStab:  Solving for ILambda_67_0, Initial residual = 1.49782287923e-14, Final residual = 1.14955799274e-61, No Iterations 39
DILUPBiCGStab:  Solving for ILambda_68_0, Initial residual = 1.53193347232e-14, Final residual = 4.00989366466e-61, No Iterations 40
DILUPBiCGStab:  Solving for ILambda_69_0, Initial residual = 1.42100141107e-14, Final residual = 2.75846457324e-61, No Iterations 41
DILUPBiCGStab:  Solving for ILambda_70_0, Initial residual = 1.96358443515e-14, Final residual = 8.28713696142e-62, No Iterations 39
DILUPBiCGStab:  Solving for ILambda_71_0, Initial residual = 3.84111202804e-14, Final residual = 3.58439031084e-61, No Iterations 40
DILUPBiCGStab:  Solving for ILambda_72_0, Initial residual = 6.30361936736e-14, Final residual = 1.28198120838e-61, No Iterations 62
DILUPBiCGStab:  Solving for ILambda_73_0, Initial residual = 6.5774271599e-14, Final residual = 7.23311211437e-61, No Iterations 90
DILUPBiCGStab:  Solving for ILambda_74_0, Initial residual = 5.51547187836e-13, Final residual = 7.17665870953e-61, No Iterations 110
DILUPBiCGStab:  Solving for ILambda_75_0, Initial residual = 1.23932070867e-13, Final residual = 3.5481543864e-62, No Iterations 127
DILUPBiCGStab:  Solving for ILambda_76_0, Initial residual = 2.28223226005e-13, Final residual = 3.37990281464e-61, No Iterations 128
DILUPBiCGStab:  Solving for ILambda_77_0, Initial residual = 6.94031493082e-14, Final residual = 4.71287739522e-61, No Iterations 121
DILUPBiCGStab:  Solving for ILambda_78_0, Initial residual = 3.22514689121e-14, Final residual = 5.74150219143e-61, No Iterations 93
DILUPBiCGStab:  Solving for ILambda_79_0, Initial residual = 8.17012739054e-15, Final residual = 6.19630078152e-61, No Iterations 60
DILUPBiCGStab:  Solving for ILambda_80_0, Initial residual = 1.71892247439e-15, Final residual = 5.91663230763e-75, No Iterations 2
DILUPBiCGStab:  Solving for ILambda_81_0, Initial residual = 1.83075727447e-15, Final residual = 1.61879411485e-72, No Iterations 2
DILUPBiCGStab:  Solving for ILambda_82_0, Initial residual = 1.88336830858e-15, Final residual = 2.79903025485e-73, No Iterations 2
DILUPBiCGStab:  Solving for ILambda_83_0, Initial residual = 1.84613509511e-15, Final residual = 1.07417754847e-71, No Iterations 2
DILUPBiCGStab:  Solving for ILambda_84_0, Initial residual = 1.70991160406e-15, Final residual = 3.64490376407e-74, No Iterations 2
DILUPBiCGStab:  Solving for ILambda_85_0, Initial residual = 1.71555604932e-15, Final residual = 1.65379808579e-72, No Iterations 2
DILUPBiCGStab:  Solving for ILambda_86_0, Initial residual = 1.65639965074e-15, Final residual = 6.13933340163e-61, No Iterations 2
DILUPBiCGStab:  Solving for ILambda_87_0, Initial residual = 1.56952487906e-15, Final residual = 1.48524886139e-72, No Iterations 2
DILUPBiCGStab:  Solving for ILambda_88_0, Initial residual = 8.0946770302e-15, Final residual = 3.96740097282e-61, No Iterations 58
DILUPBiCGStab:  Solving for ILambda_89_0, Initial residual = 5.54522554418e-14, Final residual = 9.6052796952e-61, No Iterations 93
DILUPBiCGStab:  Solving for ILambda_90_0, Initial residual = 1.7578818018e-13, Final residual = 3.05480413556e-61, No Iterations 115
DILUPBiCGStab:  Solving for ILambda_91_0, Initial residual = 1.90160446872e-13, Final residual = 7.61868385209e-61, No Iterations 127
DILUPBiCGStab:  Solving for ILambda_92_0, Initial residual = 1.32389690929e-13, Final residual = 7.99630466902e-61, No Iterations 125
DILUPBiCGStab:  Solving for ILambda_93_0, Initial residual = 1.58173263472e-13, Final residual = 9.38645972056e-63, No Iterations 116
DILUPBiCGStab:  Solving for ILambda_94_0, Initial residual = 7.248804895e-14, Final residual = 4.53308610546e-61, No Iterations 93
DILUPBiCGStab:  Solving for ILambda_95_0, Initial residual = 2.87256876031e-13, Final residual = 3.71303858685e-61, No Iterations 59
DILUPBiCGStab:  Solving for ILambda_96_0, Initial residual = 3.8691547981e-14, Final residual = 6.48648540418e-61, No Iterations 30
DILUPBiCGStab:  Solving for ILambda_97_0, Initial residual = 2.28052999651e-15, Final residual = 1.15576178631e-61, No Iterations 30
DILUPBiCGStab:  Solving for ILambda_98_0, Initial residual = 2.80231034238e-15, Final residual = 6.41578322272e-61, No Iterations 30
DILUPBiCGStab:  Solving for ILambda_99_0, Initial residual = 4.59538397563e-15, Final residual = 1.95488996682e-61, No Iterations 33
DILUPBiCGStab:  Solving for ILambda_100_0, Initial residual = 4.7008935768e-15, Final residual = 6.61951186283e-61, No Iterations 31
DILUPBiCGStab:  Solving for ILambda_101_0, Initial residual = 2.92520507204e-15, Final residual = 8.16824435803e-62, No Iterations 31
DILUPBiCGStab:  Solving for ILambda_102_0, Initial residual = 2.43805547361e-15, Final residual = 3.35575267909e-61, No Iterations 31
DILUPBiCGStab:  Solving for ILambda_103_0, Initial residual = 4.26090146803e-14, Final residual = 5.4749446461e-61, No Iterations 30
DILUPBiCGStab:  Solving for ILambda_104_0, Initial residual = 8.48674698912e-15, Final residual = 9.46374572596e-61, No Iterations 56
DILUPBiCGStab:  Solving for ILambda_105_0, Initial residual = 8.76108466084e-15, Final residual = 7.49889212825e-61, No Iterations 88
DILUPBiCGStab:  Solving for ILambda_106_0, Initial residual = 3.93892932872e-14, Final residual = 6.33283331478e-61, No Iterations 107
DILUPBiCGStab:  Solving for ILambda_107_0, Initial residual = 7.80200834284e-14, Final residual = 7.15113542394e-61, No Iterations 126
DILUPBiCGStab:  Solving for ILambda_108_0, Initial residual = 1.09144814498e-13, Final residual = 4.85104651926e-61, No Iterations 121
DILUPBiCGStab:  Solving for ILambda_109_0, Initial residual = 1.15500826636e-13, Final residual = 3.20085757329e-61, No Iterations 108
DILUPBiCGStab:  Solving for ILambda_110_0, Initial residual = 8.31436645247e-15, Final residual = 4.72705689417e-61, No Iterations 90
DILUPBiCGStab:  Solving for ILambda_111_0, Initial residual = 7.27416181832e-15, Final residual = 7.76189937044e-61, No Iterations 56
DILUPBiCGStab:  Solving for ILambda_112_0, Initial residual = 3.20904751407e-16, Final residual = 2.49522490907e-61, No Iterations 2
DILUPBiCGStab:  Solving for ILambda_113_0, Initial residual = 4.33767004929e-16, Final residual = 5.10514319847e-73, No Iterations 2
DILUPBiCGStab:  Solving for ILambda_114_0, Initial residual = 4.25606676975e-16, Final residual = 5.19958550943e-61, No Iterations 2
DILUPBiCGStab:  Solving for ILambda_115_0, Initial residual = 4.21076475639e-16, Final residual = 7.11692459311e-72, No Iterations 2
DILUPBiCGStab:  Solving for ILambda_116_0, Initial residual = 4.17646693149e-16, Final residual = 2.90928017375e-61, No Iterations 2
DILUPBiCGStab:  Solving for ILambda_117_0, Initial residual = 3.88251550003e-16, Final residual = 6.61059125541e-73, No Iterations 2
DILUPBiCGStab:  Solving for ILambda_118_0, Initial residual = 3.96195897629e-16, Final residual = 4.06996258994e-61, No Iterations 2
DILUPBiCGStab:  Solving for ILambda_119_0, Initial residual = 2.86805788803e-16, Final residual = 9.36128573534e-62, No Iterations 2
DILUPBiCGStab:  Solving for ILambda_120_0, Initial residual = 7.24518401938e-15, Final residual = 8.00627616823e-61, No Iterations 59
DILUPBiCGStab:  Solving for ILambda_121_0, Initial residual = 1.53512447664e-14, Final residual = 2.30424008254e-61, No Iterations 88
DILUPBiCGStab:  Solving for ILambda_122_0, Initial residual = 1.79568454798e-13, Final residual = 8.31477862922e-61, No Iterations 106
DILUPBiCGStab:  Solving for ILambda_123_0, Initial residual = 8.69942678782e-14, Final residual = 5.60285288003e-61, No Iterations 123
DILUPBiCGStab:  Solving for ILambda_124_0, Initial residual = 3.73733776003e-13, Final residual = 6.0099105799e-61, No Iterations 116
DILUPBiCGStab:  Solving for ILambda_125_0, Initial residual = 3.5383095676e-14, Final residual = 9.20443011681e-61, No Iterations 109
DILUPBiCGStab:  Solving for ILambda_126_0, Initial residual = 8.39962241002e-15, Final residual = 7.74566752593e-61, No Iterations 88
DILUPBiCGStab:  Solving for ILambda_127_0, Initial residual = 8.42843757442e-15, Final residual = 3.26226183971e-61, No Iterations 57
min/max(T) = 1000, 1000
PIMPLE: iteration 2
Radiation solver iter: 0
DILUPBiCGStab:  Solving for ILambda_0_0, Initial residual = 2.6925738843e-16, Final residual = 2.83062867741e-61, No Iterations 2
DILUPBiCGStab:  Solving for ILambda_1_0, Initial residual = 3.74482956752e-16, Final residual = 5.16612412137e-61, No Iterations 2
DILUPBiCGStab:  Solving for ILambda_2_0, Initial residual = 3.61051742138e-16, Final residual = 3.8367938642e-61, No Iterations 2
DILUPBiCGStab:  Solving for ILambda_3_0, Initial residual = 4.09905111567e-16, Final residual = 2.32422231668e-61, No Iterations 2
DILUPBiCGStab:  Solving for ILambda_4_0, Initial residual = 4.05279398753e-16, Final residual = 1.06017004663e-61, No Iterations 2
DILUPBiCGStab:  Solving for ILambda_5_0, Initial residual = 4.04583853398e-16, Final residual = 7.87488824869e-61, No Iterations 2
DILUPBiCGStab:  Solving for ILambda_6_0, Initial residual = 4.19011626157e-16, Final residual = 2.81328974089e-61, No Iterations 2
DILUPBiCGStab:  Solving for ILambda_7_0, Initial residual = 3.24114230248e-16, Final residual = 1.73182036824e-61, No Iterations 2
DILUPBiCGStab:  Solving for ILambda_8_0, Initial residual = 4.04245184133e-16, Final residual = 3.995848497e-61, No Iterations 54
DILUPBiCGStab:  Solving for ILambda_9_0, Initial residual = 8.33948210999e-16, Final residual = 7.55714464584e-61, No Iterations 89
DILUPBiCGStab:  Solving for ILambda_10_0, Initial residual = 9.032443031e-16, Final residual = 6.59701865862e-61, No Iterations 115
DILUPBiCGStab:  Solving for ILambda_11_0, Initial residual = 1.01582550867e-15, Final residual = 7.49715610925e-61, No Iterations 126
DILUPBiCGStab:  Solving for ILambda_12_0, Initial residual = 9.85597897189e-16, Final residual = 8.67762557776e-61, No Iterations 119
DILUPBiCGStab:  Solving for ILambda_13_0, Initial residual = 9.05792169898e-16, Final residual = 1.72148081279e-61, No Iterations 108
DILUPBiCGStab:  Solving for ILambda_14_0, Initial residual = 7.99335973123e-16, Final residual = 5.15152724564e-61, No Iterations 89
DILUPBiCGStab:  Solving for ILambda_15_0, Initial residual = 4.53581507139e-16, Final residual = 6.60475658096e-61, No Iterations 57
DILUPBiCGStab:  Solving for ILambda_16_0, Initial residual = 3.45083134431e-16, Final residual = 7.79857896638e-61, No Iterations 29
DILUPBiCGStab:  Solving for ILambda_17_0, Initial residual = 4.83504000263e-16, Final residual = 3.00343160598e-61, No Iterations 29
DILUPBiCGStab:  Solving for ILambda_18_0, Initial residual = 6.08871161619e-16, Final residual = 5.20603464186e-61, No Iterations 30
DILUPBiCGStab:  Solving for ILambda_19_0, Initial residual = 5.21864794104e-16, Final residual = 7.84156139337e-61, No Iterations 29
DILUPBiCGStab:  Solving for ILambda_20_0, Initial residual = 5.26610248133e-16, Final residual = 3.40539852678e-61, No Iterations 31
DILUPBiCGStab:  Solving for ILambda_21_0, Initial residual = 5.27811314395e-16, Final residual = 4.10162479384e-61, No Iterations 31
DILUPBiCGStab:  Solving for ILambda_22_0, Initial residual = 4.05017598621e-16, Final residual = 6.06707243881e-61, No Iterations 29
DILUPBiCGStab:  Solving for ILambda_23_0, Initial residual = 3.03157440933e-16, Final residual = 1.0350657063e-61, No Iterations 28
DILUPBiCGStab:  Solving for ILambda_24_0, Initial residual = 4.81719232091e-16, Final residual = 5.13655737837e-61, No Iterations 57
DILUPBiCGStab:  Solving for ILambda_25_0, Initial residual = 8.2192347367e-16, Final residual = 7.7178056265e-61, No Iterations 86
DILUPBiCGStab:  Solving for ILambda_26_0, Initial residual = 9.00465797035e-16, Final residual = 4.20291027388e-61, No Iterations 111
DILUPBiCGStab:  Solving for ILambda_27_0, Initial residual = 1.00840493658e-15, Final residual = 3.86504573068e-61, No Iterations 123
DILUPBiCGStab:  Solving for ILambda_28_0, Initial residual = 9.81032530337e-16, Final residual = 6.07044960585e-61, No Iterations 123
DILUPBiCGStab:  Solving for ILambda_29_0, Initial residual = 9.34078831783e-16, Final residual = 6.89646765122e-61, No Iterations 110
DILUPBiCGStab:  Solving for ILambda_30_0, Initial residual = 7.62670368595e-16, Final residual = 4.7552845952e-61, No Iterations 90
DILUPBiCGStab:  Solving for ILambda_31_0, Initial residual = 4.39101551748e-16, Final residual = 6.39283580435e-61, No Iterations 55
DILUPBiCGStab:  Solving for ILambda_32_0, Initial residual = 1.59435283893e-15, Final residual = 1.11774860258e-73, No Iterations 2
DILUPBiCGStab:  Solving for ILambda_33_0, Initial residual = 1.68650506193e-15, Final residual = 2.29303188318e-75, No Iterations 2
DILUPBiCGStab:  Solving for ILambda_34_0, Initial residual = 1.73320812982e-15, Final residual = 8.59444982457e-76, No Iterations 2
DILUPBiCGStab:  Solving for ILambda_35_0, Initial residual = 1.81364367625e-15, Final residual = 1.91148002864e-74, No Iterations 2
DILUPBiCGStab:  Solving for ILambda_36_0, Initial residual = 1.72021708168e-15, Final residual = 4.58375818756e-75, No Iterations 2
DILUPBiCGStab:  Solving for ILambda_37_0, Initial residual = 1.88568179703e-15, Final residual = 5.89045393893e-75, No Iterations 2
DILUPBiCGStab:  Solving for ILambda_38_0, Initial residual = 1.83142153681e-15, Final residual = 4.70042127326e-61, No Iterations 2
DILUPBiCGStab:  Solving for ILambda_39_0, Initial residual = 1.72244524023e-15, Final residual = 4.02735128515e-75, No Iterations 2
DILUPBiCGStab:  Solving for ILambda_40_0, Initial residual = 2.3565977531e-15, Final residual = 6.83746545133e-61, No Iterations 59
DILUPBiCGStab:  Solving for ILambda_41_0, Initial residual = 3.85019034331e-15, Final residual = 4.94306297772e-61, No Iterations 99
DILUPBiCGStab:  Solving for ILambda_42_0, Initial residual = 4.60249224866e-15, Final residual = 9.1100811405e-61, No Iterations 115
DILUPBiCGStab:  Solving for ILambda_43_0, Initial residual = 4.63354214157e-15, Final residual = 7.91089456581e-61, No Iterations 130
DILUPBiCGStab:  Solving for ILambda_44_0, Initial residual = 5.0605890592e-15, Final residual = 2.38887836225e-61, No Iterations 126
DILUPBiCGStab:  Solving for ILambda_45_0, Initial residual = 4.75333104065e-15, Final residual = 7.7307067808e-62, No Iterations 111
DILUPBiCGStab:  Solving for ILambda_46_0, Initial residual = 4.50844307413e-15, Final residual = 4.47987794813e-61, No Iterations 90
DILUPBiCGStab:  Solving for ILambda_47_0, Initial residual = 3.11622203159e-15, Final residual = 1.60608620171e-61, No Iterations 62
DILUPBiCGStab:  Solving for ILambda_48_0, Initial residual = 2.04941926461e-15, Final residual = 7.5529802134e-62, No Iterations 39
DILUPBiCGStab:  Solving for ILambda_49_0, Initial residual = 2.31719166015e-15, Final residual = 2.48922023262e-61, No Iterations 41
DILUPBiCGStab:  Solving for ILambda_50_0, Initial residual = 3.04347885839e-15, Final residual = 2.06835352557e-61, No Iterations 38
DILUPBiCGStab:  Solving for ILambda_51_0, Initial residual = 3.6173655779e-15, Final residual = 4.90978231996e-61, No Iterations 39
DILUPBiCGStab:  Solving for ILambda_52_0, Initial residual = 2.66555243748e-15, Final residual = 5.34212463179e-61, No Iterations 37
DILUPBiCGStab:  Solving for ILambda_53_0, Initial residual = 3.00128410434e-15, Final residual = 6.91541860076e-62, No Iterations 39
DILUPBiCGStab:  Solving for ILambda_54_0, Initial residual = 1.9504443258e-15, Final residual = 3.7361503601e-61, No Iterations 38
DILUPBiCGStab:  Solving for ILambda_55_0, Initial residual = 2.01793681618e-15, Final residual = 4.6168636381e-61, No Iterations 36
DILUPBiCGStab:  Solving for ILambda_56_0, Initial residual = 3.08040754837e-15, Final residual = 7.64731308458e-61, No Iterations 62
DILUPBiCGStab:  Solving for ILambda_57_0, Initial residual = 4.16094559139e-15, Final residual = 5.30098717023e-61, No Iterations 93
DILUPBiCGStab:  Solving for ILambda_58_0, Initial residual = 4.56748960503e-15, Final residual = 5.99850259687e-62, No Iterations 117
DILUPBiCGStab:  Solving for ILambda_59_0, Initial residual = 5.15020049524e-15, Final residual = 6.95625925405e-62, No Iterations 130
DILUPBiCGStab:  Solving for ILambda_60_0, Initial residual = 4.61688397956e-15, Final residual = 8.36667256764e-61, No Iterations 129
DILUPBiCGStab:  Solving for ILambda_61_0, Initial residual = 4.48129588973e-15, Final residual = 3.75022942683e-61, No Iterations 120
DILUPBiCGStab:  Solving for ILambda_62_0, Initial residual = 3.76502084162e-15, Final residual = 4.41178012085e-61, No Iterations 100
DILUPBiCGStab:  Solving for ILambda_63_0, Initial residual = 2.52482482844e-15, Final residual = 6.51818316197e-61, No Iterations 57
DILUPBiCGStab:  Solving for ILambda_64_0, Initial residual = 1.90870479549e-15, Final residual = 2.24004016249e-61, No Iterations 38
DILUPBiCGStab:  Solving for ILambda_65_0, Initial residual = 2.12450830337e-15, Final residual = 3.7464727883e-61, No Iterations 39
DILUPBiCGStab:  Solving for ILambda_66_0, Initial residual = 1.94878919362e-15, Final residual = 2.72281304538e-62, No Iterations 41
DILUPBiCGStab:  Solving for ILambda_67_0, Initial residual = 2.12656608895e-15, Final residual = 1.16760880529e-61, No Iterations 41
DILUPBiCGStab:  Solving for ILambda_68_0, Initial residual = 2.0536603715e-15, Final residual = 1.0488051667e-61, No Iterations 38
DILUPBiCGStab:  Solving for ILambda_69_0, Initial residual = 2.03161130011e-15, Final residual = 4.02592011339e-61, No Iterations 41
DILUPBiCGStab:  Solving for ILambda_70_0, Initial residual = 2.05134356886e-15, Final residual = 7.64135263675e-61, No Iterations 40
DILUPBiCGStab:  Solving for ILambda_71_0, Initial residual = 2.02983940631e-15, Final residual = 1.67693403497e-61, No Iterations 37
DILUPBiCGStab:  Solving for ILambda_72_0, Initial residual = 2.50644301964e-15, Final residual = 2.50888613829e-61, No Iterations 64
DILUPBiCGStab:  Solving for ILambda_73_0, Initial residual = 3.49242977702e-15, Final residual = 7.75658715269e-61, No Iterations 93
DILUPBiCGStab:  Solving for ILambda_74_0, Initial residual = 4.13167242546e-15, Final residual = 9.94524988311e-61, No Iterations 118
DILUPBiCGStab:  Solving for ILambda_75_0, Initial residual = 4.5285652175e-15, Final residual = 3.16618292919e-61, No Iterations 124
DILUPBiCGStab:  Solving for ILambda_76_0, Initial residual = 4.62983011609e-15, Final residual = 9.43635968349e-61, No Iterations 130
DILUPBiCGStab:  Solving for ILambda_77_0, Initial residual = 4.65618511237e-15, Final residual = 4.95228247628e-61, No Iterations 117
DILUPBiCGStab:  Solving for ILambda_78_0, Initial residual = 3.64886070948e-15, Final residual = 5.20600111012e-61, No Iterations 95
DILUPBiCGStab:  Solving for ILambda_79_0, Initial residual = 2.44582688828e-15, Final residual = 8.48337703534e-61, No Iterations 59
DILUPBiCGStab:  Solving for ILambda_80_0, Initial residual = 1.67750565318e-15, Final residual = 2.83871281736e-73, No Iterations 2
DILUPBiCGStab:  Solving for ILambda_81_0, Initial residual = 1.81093313241e-15, Final residual = 1.26452607892e-71, No Iterations 2
DILUPBiCGStab:  Solving for ILambda_82_0, Initial residual = 1.86717102145e-15, Final residual = 6.34516564023e-73, No Iterations 2
DILUPBiCGStab:  Solving for ILambda_83_0, Initial residual = 1.7805578162e-15, Final residual = 9.59334423398e-74, No Iterations 2
DILUPBiCGStab:  Solving for ILambda_84_0, Initial residual = 1.68701525669e-15, Final residual = 1.32238627196e-72, No Iterations 2
DILUPBiCGStab:  Solving for ILambda_85_0, Initial residual = 1.66377307523e-15, Final residual = 7.0634385512e-75, No Iterations 2
DILUPBiCGStab:  Solving for ILambda_86_0, Initial residual = 1.64065178752e-15, Final residual = 8.96135180635e-61, No Iterations 2
DILUPBiCGStab:  Solving for ILambda_87_0, Initial residual = 1.52213518865e-15, Final residual = 5.80210238228e-73, No Iterations 2
DILUPBiCGStab:  Solving for ILambda_88_0, Initial residual = 2.27418506649e-15, Final residual = 5.82517274408e-61, No Iterations 60
DILUPBiCGStab:  Solving for ILambda_89_0, Initial residual = 3.86082904619e-15, Final residual = 4.74459613081e-61, No Iterations 96
DILUPBiCGStab:  Solving for ILambda_90_0, Initial residual = 4.24538775481e-15, Final residual = 6.71553841677e-61, No Iterations 119
DILUPBiCGStab:  Solving for ILambda_91_0, Initial residual = 4.67450551296e-15, Final residual = 7.24864025917e-62, No Iterations 128
DILUPBiCGStab:  Solving for ILambda_92_0, Initial residual = 4.47960758372e-15, Final residual = 6.19216385929e-61, No Iterations 124
DILUPBiCGStab:  Solving for ILambda_93_0, Initial residual = 3.905688827e-15, Final residual = 9.40329738386e-61, No Iterations 114
DILUPBiCGStab:  Solving for ILambda_94_0, Initial residual = 3.67766945262e-15, Final residual = 3.2492712355e-61, No Iterations 94
DILUPBiCGStab:  Solving for ILambda_95_0, Initial residual = 2.7916159143e-15, Final residual = 3.18238609299e-61, No Iterations 63
DILUPBiCGStab:  Solving for ILambda_96_0, Initial residual = 4.83502826481e-16, Final residual = 1.64347155472e-61, No Iterations 30
DILUPBiCGStab:  Solving for ILambda_97_0, Initial residual = 4.1988482084e-16, Final residual = 1.61178166857e-61, No Iterations 29
DILUPBiCGStab:  Solving for ILambda_98_0, Initial residual = 5.20358752884e-16, Final residual = 2.80686472386e-61, No Iterations 30
DILUPBiCGStab:  Solving for ILambda_99_0, Initial residual = 4.69474557578e-16, Final residual = 1.99280652081e-61, No Iterations 30
DILUPBiCGStab:  Solving for ILambda_100_0, Initial residual = 5.53760157184e-16, Final residual = 2.87382253642e-61, No Iterations 29
DILUPBiCGStab:  Solving for ILambda_101_0, Initial residual = 4.61975666393e-16, Final residual = 1.35619513565e-61, No Iterations 29
DILUPBiCGStab:  Solving for ILambda_102_0, Initial residual = 4.64082177005e-16, Final residual = 5.98830685443e-61, No Iterations 30
DILUPBiCGStab:  Solving for ILambda_103_0, Initial residual = 5.08756755953e-16, Final residual = 5.89413391075e-62, No Iterations 28
DILUPBiCGStab:  Solving for ILambda_104_0, Initial residual = 5.5751354635e-16, Final residual = 2.64876541193e-61, No Iterations 56
DILUPBiCGStab:  Solving for ILambda_105_0, Initial residual = 7.01215321092e-16, Final residual = 3.79625417213e-61, No Iterations 92
DILUPBiCGStab:  Solving for ILambda_106_0, Initial residual = 9.15608368275e-16, Final residual = 4.23949335124e-61, No Iterations 114
DILUPBiCGStab:  Solving for ILambda_107_0, Initial residual = 9.8068304744e-16, Final residual = 2.05650223185e-61, No Iterations 124
DILUPBiCGStab:  Solving for ILambda_108_0, Initial residual = 9.52529898737e-16, Final residual = 2.76188194329e-61, No Iterations 127
DILUPBiCGStab:  Solving for ILambda_109_0, Initial residual = 8.49574920219e-16, Final residual = 5.67599478682e-61, No Iterations 112
DILUPBiCGStab:  Solving for ILambda_110_0, Initial residual = 6.85359231355e-16, Final residual = 8.73964913582e-61, No Iterations 88
DILUPBiCGStab:  Solving for ILambda_111_0, Initial residual = 4.92925209315e-16, Final residual = 7.85695257965e-61, No Iterations 56
DILUPBiCGStab:  Solving for ILambda_112_0, Initial residual = 3.10456689066e-16, Final residual = 7.36798270585e-61, No Iterations 2
DILUPBiCGStab:  Solving for ILambda_113_0, Initial residual = 4.19751716622e-16, Final residual = 1.14495008998e-72, No Iterations 2
DILUPBiCGStab:  Solving for ILambda_114_0, Initial residual = 4.09247817537e-16, Final residual = 2.88908061023e-61, No Iterations 2
DILUPBiCGStab:  Solving for ILambda_115_0, Initial residual = 4.16925685856e-16, Final residual = 4.51379568278e-75, No Iterations 2
DILUPBiCGStab:  Solving for ILambda_116_0, Initial residual = 4.08880802348e-16, Final residual = 1.83239314145e-61, No Iterations 2
DILUPBiCGStab:  Solving for ILambda_117_0, Initial residual = 3.72404707082e-16, Final residual = 5.27896691802e-61, No Iterations 2
DILUPBiCGStab:  Solving for ILambda_118_0, Initial residual = 3.82191470745e-16, Final residual = 5.97898405824e-61, No Iterations 2
DILUPBiCGStab:  Solving for ILambda_119_0, Initial residual = 2.73222790449e-16, Final residual = 9.80234400119e-62, No Iterations 2
DILUPBiCGStab:  Solving for ILambda_120_0, Initial residual = 5.02691705403e-16, Final residual = 5.72336857384e-61, No Iterations 56
DILUPBiCGStab:  Solving for ILambda_121_0, Initial residual = 7.04680210676e-16, Final residual = 2.50268477829e-61, No Iterations 89
DILUPBiCGStab:  Solving for ILambda_122_0, Initial residual = 8.58619516731e-16, Final residual = 1.81647101577e-61, No Iterations 111
DILUPBiCGStab:  Solving for ILambda_123_0, Initial residual = 8.98404176756e-16, Final residual = 8.95255224024e-61, No Iterations 125
DILUPBiCGStab:  Solving for ILambda_124_0, Initial residual = 9.42453668852e-16, Final residual = 5.43867592624e-61, No Iterations 120
DILUPBiCGStab:  Solving for ILambda_125_0, Initial residual = 8.77109058094e-16, Final residual = 5.13399564376e-61, No Iterations 108
DILUPBiCGStab:  Solving for ILambda_126_0, Initial residual = 6.74919316409e-16, Final residual = 2.50396219317e-61, No Iterations 89
DILUPBiCGStab:  Solving for ILambda_127_0, Initial residual = 4.79087889011e-16, Final residual = 8.17111127229e-61, No Iterations 56
min/max(T) = 1000, 1000
PIMPLE: iteration 3
Radiation solver iter: 0
DILUPBiCGStab:  Solving for ILambda_0_0, Initial residual = 2.68349771796e-16, Final residual = 2.76104491737e-61, No Iterations 2
DILUPBiCGStab:  Solving for ILambda_1_0, Initial residual = 3.73610845553e-16, Final residual = 4.96219515992e-61, No Iterations 2
DILUPBiCGStab:  Solving for ILambda_2_0, Initial residual = 3.60629235434e-16, Final residual = 2.81805457818e-61, No Iterations 2
DILUPBiCGStab:  Solving for ILambda_3_0, Initial residual = 4.06323115127e-16, Final residual = 3.6533692376e-61, No Iterations 2
DILUPBiCGStab:  Solving for ILambda_4_0, Initial residual = 3.98651009471e-16, Final residual = 2.33350398574e-61, No Iterations 2
DILUPBiCGStab:  Solving for ILambda_5_0, Initial residual = 4.01825806111e-16, Final residual = 3.72569035727e-61, No Iterations 2
DILUPBiCGStab:  Solving for ILambda_6_0, Initial residual = 4.18641275529e-16, Final residual = 2.53188663221e-61, No Iterations 2
DILUPBiCGStab:  Solving for ILambda_7_0, Initial residual = 3.19536164293e-16, Final residual = 1.11218774128e-61, No Iterations 2
DILUPBiCGStab:  Solving for ILambda_8_0, Initial residual = 3.48721403134e-16, Final residual = 1.70152757216e-61, No Iterations 55
DILUPBiCGStab:  Solving for ILambda_9_0, Initial residual = 5.69851448522e-16, Final residual = 5.73459499952e-61, No Iterations 91
DILUPBiCGStab:  Solving for ILambda_10_0, Initial residual = 6.49706368234e-16, Final residual = 7.58735592863e-61, No Iterations 111
DILUPBiCGStab:  Solving for ILambda_11_0, Initial residual = 7.5511082871e-16, Final residual = 6.89712399792e-61, No Iterations 123
DILUPBiCGStab:  Solving for ILambda_12_0, Initial residual = 8.02290349263e-16, Final residual = 6.08404833826e-61, No Iterations 122
DILUPBiCGStab:  Solving for ILambda_13_0, Initial residual = 6.94874889654e-16, Final residual = 5.85371331085e-61, No Iterations 108
DILUPBiCGStab:  Solving for ILambda_14_0, Initial residual = 5.18747050475e-16, Final residual = 5.61456787841e-61, No Iterations 90
DILUPBiCGStab:  Solving for ILambda_15_0, Initial residual = 3.80220491577e-16, Final residual = 1.52072890748e-61, No Iterations 56
DILUPBiCGStab:  Solving for ILambda_16_0, Initial residual = 3.25363001792e-16, Final residual = 9.44952436043e-61, No Iterations 29
DILUPBiCGStab:  Solving for ILambda_17_0, Initial residual = 4.25101256985e-16, Final residual = 1.07644065774e-61, No Iterations 28
DILUPBiCGStab:  Solving for ILambda_18_0, Initial residual = 4.12766854905e-16, Final residual = 1.61622907594e-61, No Iterations 29
DILUPBiCGStab:  Solving for ILambda_19_0, Initial residual = 4.09208833264e-16, Final residual = 3.56488623832e-61, No Iterations 31
DILUPBiCGStab:  Solving for ILambda_20_0, Initial residual = 4.15809859196e-16, Final residual = 3.19335789985e-61, No Iterations 29
DILUPBiCGStab:  Solving for ILambda_21_0, Initial residual = 3.65588832113e-16, Final residual = 6.32140763098e-62, No Iterations 31
DILUPBiCGStab:  Solving for ILambda_22_0, Initial residual = 3.75546669829e-16, Final residual = 4.60009507571e-61, No Iterations 30
DILUPBiCGStab:  Solving for ILambda_23_0, Initial residual = 2.80249127406e-16, Final residual = 3.48921457537e-62, No Iterations 30
DILUPBiCGStab:  Solving for ILambda_24_0, Initial residual = 3.60012588093e-16, Final residual = 3.38462965052e-61, No Iterations 59
DILUPBiCGStab:  Solving for ILambda_25_0, Initial residual = 6.25200363264e-16, Final residual = 8.21544177501e-61, No Iterations 89
DILUPBiCGStab:  Solving for ILambda_26_0, Initial residual = 6.39601038234e-16, Final residual = 4.52448598751e-61, No Iterations 110
DILUPBiCGStab:  Solving for ILambda_27_0, Initial residual = 8.41948692797e-16, Final residual = 2.68826232446e-61, No Iterations 127
DILUPBiCGStab:  Solving for ILambda_28_0, Initial residual = 6.19480605057e-16, Final residual = 6.43197784898e-61, No Iterations 125
DILUPBiCGStab:  Solving for ILambda_29_0, Initial residual = 7.99353181441e-16, Final residual = 4.09245019335e-61, No Iterations 108
DILUPBiCGStab:  Solving for ILambda_30_0, Initial residual = 6.00348609187e-16, Final residual = 5.50416166444e-61, No Iterations 94
DILUPBiCGStab:  Solving for ILambda_31_0, Initial residual = 3.43338890787e-16, Final residual = 4.37648718752e-61, No Iterations 55
DILUPBiCGStab:  Solving for ILambda_32_0, Initial residual = 1.58105131874e-15, Final residual = 6.39091670082e-75, No Iterations 2
DILUPBiCGStab:  Solving for ILambda_33_0, Initial residual = 1.71306804517e-15, Final residual = 2.14209046967e-73, No Iterations 2
DILUPBiCGStab:  Solving for ILambda_34_0, Initial residual = 1.7045808707e-15, Final residual = 8.62971308942e-76, No Iterations 2
DILUPBiCGStab:  Solving for ILambda_35_0, Initial residual = 1.77525442495e-15, Final residual = 2.20997149384e-75, No Iterations 2
DILUPBiCGStab:  Solving for ILambda_36_0, Initial residual = 1.68293266815e-15, Final residual = 2.89686692816e-75, No Iterations 2
DILUPBiCGStab:  Solving for ILambda_37_0, Initial residual = 1.87895810341e-15, Final residual = 1.35140626952e-73, No Iterations 2
DILUPBiCGStab:  Solving for ILambda_38_0, Initial residual = 1.82060816949e-15, Final residual = 6.89681167754e-61, No Iterations 2
DILUPBiCGStab:  Solving for ILambda_39_0, Initial residual = 1.71167917454e-15, Final residual = 2.84017227649e-75, No Iterations 2
DILUPBiCGStab:  Solving for ILambda_40_0, Initial residual = 1.84316330352e-15, Final residual = 2.02185609162e-61, No Iterations 59
DILUPBiCGStab:  Solving for ILambda_41_0, Initial residual = 3.19231930786e-15, Final residual = 2.00284315556e-61, No Iterations 96
DILUPBiCGStab:  Solving for ILambda_42_0, Initial residual = 4.27282463384e-15, Final residual = 7.23337097353e-61, No Iterations 118
DILUPBiCGStab:  Solving for ILambda_43_0, Initial residual = 4.29087098665e-15, Final residual = 2.07801951954e-61, No Iterations 130
DILUPBiCGStab:  Solving for ILambda_44_0, Initial residual = 3.96780346299e-15, Final residual = 5.20177672273e-61, No Iterations 127
DILUPBiCGStab:  Solving for ILambda_45_0, Initial residual = 3.58298136086e-15, Final residual = 7.11665859191e-61, No Iterations 113
DILUPBiCGStab:  Solving for ILambda_46_0, Initial residual = 4.09651449271e-15, Final residual = 4.4541547266e-61, No Iterations 92
DILUPBiCGStab:  Solving for ILambda_47_0, Initial residual = 2.30853413395e-15, Final residual = 3.75792592138e-61, No Iterations 63
DILUPBiCGStab:  Solving for ILambda_48_0, Initial residual = 1.79241225492e-15, Final residual = 8.52161585133e-62, No Iterations 37
DILUPBiCGStab:  Solving for ILambda_49_0, Initial residual = 1.85181303286e-15, Final residual = 2.07581634545e-62, No Iterations 38
DILUPBiCGStab:  Solving for ILambda_50_0, Initial residual = 1.91147577027e-15, Final residual = 6.22958222098e-62, No Iterations 38
DILUPBiCGStab:  Solving for ILambda_51_0, Initial residual = 1.76241017864e-15, Final residual = 1.76093831329e-61, No Iterations 38
DILUPBiCGStab:  Solving for ILambda_52_0, Initial residual = 1.79311893257e-15, Final residual = 1.35683423802e-61, No Iterations 36
DILUPBiCGStab:  Solving for ILambda_53_0, Initial residual = 1.83219971396e-15, Final residual = 2.00450156013e-61, No Iterations 40
DILUPBiCGStab:  Solving for ILambda_54_0, Initial residual = 1.72824554824e-15, Final residual = 1.9557762956e-62, No Iterations 40
DILUPBiCGStab:  Solving for ILambda_55_0, Initial residual = 1.61629596231e-15, Final residual = 2.02745075383e-61, No Iterations 37
DILUPBiCGStab:  Solving for ILambda_56_0, Initial residual = 2.5347338349e-15, Final residual = 3.42438382698e-61, No Iterations 64
DILUPBiCGStab:  Solving for ILambda_57_0, Initial residual = 2.78272649009e-15, Final residual = 6.80543679241e-61, No Iterations 93
DILUPBiCGStab:  Solving for ILambda_58_0, Initial residual = 3.51421001625e-15, Final residual = 8.95480162362e-61, No Iterations 115
DILUPBiCGStab:  Solving for ILambda_59_0, Initial residual = 3.56254402907e-15, Final residual = 5.71136647129e-61, No Iterations 125
DILUPBiCGStab:  Solving for ILambda_60_0, Initial residual = 3.78361849796e-15, Final residual = 8.82426699949e-61, No Iterations 127
DILUPBiCGStab:  Solving for ILambda_61_0, Initial residual = 3.90664742595e-15, Final residual = 7.23376889844e-61, No Iterations 118
DILUPBiCGStab:  Solving for ILambda_62_0, Initial residual = 2.89086612248e-15, Final residual = 9.18662117137e-61, No Iterations 97
DILUPBiCGStab:  Solving for ILambda_63_0, Initial residual = 1.958251538e-15, Final residual = 2.01497661558e-61, No Iterations 62
DILUPBiCGStab:  Solving for ILambda_64_0, Initial residual = 1.62463234092e-15, Final residual = 4.15830638241e-61, No Iterations 36
[...]
DILUPBiCGStab:  Solving for ILambda_108_0, Initial residual = 6.17922907014e-16, Final residual = 5.31826797402e-61, No Iterations 124
DILUPBiCGStab:  Solving for ILambda_109_0, Initial residual = 5.23917252534e-16, Final residual = 8.69935419594e-61, No Iterations 110
DILUPBiCGStab:  Solving for ILambda_110_0, Initial residual = 5.40126951968e-16, Final residual = 6.8639197235e-61, No Iterations 91
DILUPBiCGStab:  Solving for ILambda_111_0, Initial residual = 3.5649404998e-16, Final residual = 4.73808633408e-62, No Iterations 57
DILUPBiCGStab:  Solving for ILambda_112_0, Initial residual = 3.06616052665e-16, Final residual = 3.35904653126e-61, No Iterations 2
DILUPBiCGStab:  Solving for ILambda_113_0, Initial residual = 4.20135626768e-16, Final residual = 6.39067366292e-61, No Iterations 2
DILUPBiCGStab:  Solving for ILambda_114_0, Initial residual = 4.01419934111e-16, Final residual = 5.89897068712e-61, No Iterations 2
DILUPBiCGStab:  Solving for ILambda_115_0, Initial residual = 4.07556956859e-16, Final residual = 2.15078083103e-73, No Iterations 2
DILUPBiCGStab:  Solving for ILambda_116_0, Initial residual = 4.04911209783e-16, Final residual = 2.40758083275e-61, No Iterations 2
DILUPBiCGStab:  Solving for ILambda_117_0, Initial residual = 3.68001597675e-16, Final residual = 1.69114488725e-61, No Iterations 2
DILUPBiCGStab:  Solving for ILambda_118_0, Initial residual = 3.84439248904e-16, Final residual = 3.23981759878e-61, No Iterations 2
DILUPBiCGStab:  Solving for ILambda_119_0, Initial residual = 2.73615469402e-16, Final residual = 1.8027377473e-61, No Iterations 2
DILUPBiCGStab:  Solving for ILambda_120_0, Initial residual = 4.03508476901e-16, Final residual = 8.05920024902e-62, No Iterations 57
DILUPBiCGStab:  Solving for ILambda_121_0, Initial residual = 6.0017912849e-16, Final residual = 8.61653407703e-61, No Iterations 90
DILUPBiCGStab:  Solving for ILambda_122_0, Initial residual = 5.80262773222e-16, Final residual = 4.00016195869e-61, No Iterations 113
DILUPBiCGStab:  Solving for ILambda_123_0, Initial residual = 6.41786728349e-16, Final residual = 6.72117721927e-61, No Iterations 124
DILUPBiCGStab:  Solving for ILambda_124_0, Initial residual = 6.96749656261e-16, Final residual = 5.64828260399e-61, No Iterations 125
DILUPBiCGStab:  Solving for ILambda_125_0, Initial residual = 6.31941690096e-16, Final residual = 2.94878191073e-61, No Iterations 110
DILUPBiCGStab:  Solving for ILambda_126_0, Initial residual = 5.73082188125e-16, Final residual = 3.90286088147e-61, No Iterations 88
DILUPBiCGStab:  Solving for ILambda_127_0, Initial residual = 3.11142504286e-16, Final residual = 2.49224519042e-61, No Iterations 56
min/max(T) = 1000, 1000
PIMPLE: iteration 10
Radiation solver iter: 0
DILUPBiCGStab:  Solving for ILambda_0_0, Initial residual = 2.76338340551e-16, Final residual = 1.69666807866e-61, No Iterations 2
DILUPBiCGStab:  Solving for ILambda_1_0, Initial residual = 3.77007661367e-16, Final residual = 2.35496236019e-61, No Iterations 2
DILUPBiCGStab:  Solving for ILambda_2_0, Initial residual = 3.54318663608e-16, Final residual = 2.28402169665e-61, No Iterations 2
DILUPBiCGStab:  Solving for ILambda_3_0, Initial residual = 4.06441390448e-16, Final residual = 1.1223406857e-75, No Iterations 2
DILUPBiCGStab:  Solving for ILambda_4_0, Initial residual = 4.04279106827e-16, Final residual = 2.77829534829e-61, No Iterations 2
DILUPBiCGStab:  Solving for ILambda_5_0, Initial residual = 3.96717745197e-16, Final residual = 9.35478510072e-61, No Iterations 2
DILUPBiCGStab:  Solving for ILambda_6_0, Initial residual = 4.18302266346e-16, Final residual = 2.61787252893e-61, No Iterations 2
DILUPBiCGStab:  Solving for ILambda_7_0, Initial residual = 3.25562926335e-16, Final residual = 1.35591725648e-61, No Iterations 2
DILUPBiCGStab:  Solving for ILambda_8_0, Initial residual = 3.07285801479e-16, Final residual = 4.18329210683e-61, No Iterations 55
DILUPBiCGStab:  Solving for ILambda_9_0, Initial residual = 4.38378457149e-16, Final residual = 3.4470364879e-61, No Iterations 89
DILUPBiCGStab:  Solving for ILambda_10_0, Initial residual = 5.36424688508e-16, Final residual = 4.41407093191e-61, No Iterations 113
DILUPBiCGStab:  Solving for ILambda_11_0, Initial residual = 6.29894086113e-16, Final residual = 9.13554591773e-61, No Iterations 126
DILUPBiCGStab:  Solving for ILambda_12_0, Initial residual = 5.83199378062e-16, Final residual = 3.53124530404e-61, No Iterations 129
DILUPBiCGStab:  Solving for ILambda_13_0, Initial residual = 5.59438673856e-16, Final residual = 9.31044611155e-61, No Iterations 111
DILUPBiCGStab:  Solving for ILambda_14_0, Initial residual = 5.22689922346e-16, Final residual = 3.73476492674e-61, No Iterations 89
DILUPBiCGStab:  Solving for ILambda_15_0, Initial residual = 3.77986936837e-16, Final residual = 5.5489481907e-61, No Iterations 56
DILUPBiCGStab:  Solving for ILambda_16_0, Initial residual = 3.17587407222e-16, Final residual = 1.23081168838e-61, No Iterations 30
DILUPBiCGStab:  Solving for ILambda_17_0, Initial residual = 4.21753814173e-16, Final residual = 5.35541213937e-61, No Iterations 29
DILUPBiCGStab:  Solving for ILambda_18_0, Initial residual = 3.97823762057e-16, Final residual = 4.48162652141e-61, No Iterations 30
DILUPBiCGStab:  Solving for ILambda_19_0, Initial residual = 4.07571413974e-16, Final residual = 5.19649752146e-61, No Iterations 31
DILUPBiCGStab:  Solving for ILambda_20_0, Initial residual = 4.0461236397e-16, Final residual = 1.69711044575e-61, No Iterations 31
DILUPBiCGStab:  Solving for ILambda_21_0, Initial residual = 3.53576039693e-16, Final residual = 2.65713574465e-61, No Iterations 30
DILUPBiCGStab:  Solving for ILambda_22_0, Initial residual = 3.79432472756e-16, Final residual = 7.13773641623e-61, No Iterations 29
DILUPBiCGStab:  Solving for ILambda_23_0, Initial residual = 2.69816541929e-16, Final residual = 1.85094527682e-61, No Iterations 30
DILUPBiCGStab:  Solving for ILambda_24_0, Initial residual = 3.78015463343e-16, Final residual = 5.48350348384e-61, No Iterations 56
DILUPBiCGStab:  Solving for ILambda_25_0, Initial residual = 5.1530587544e-16, Final residual = 5.79339921676e-61, No Iterations 90
DILUPBiCGStab:  Solving for ILambda_26_0, Initial residual = 5.02440341802e-16, Final residual = 4.35582109333e-61, No Iterations 113
DILUPBiCGStab:  Solving for ILambda_27_0, Initial residual = 6.43762588527e-16, Final residual = 2.25031740234e-61, No Iterations 128
DILUPBiCGStab:  Solving for ILambda_28_0, Initial residual = 7.03320726978e-16, Final residual = 9.08739415357e-61, No Iterations 124
DILUPBiCGStab:  Solving for ILambda_29_0, Initial residual = 6.66090466539e-16, Final residual = 4.59180627167e-61, No Iterations 115
DILUPBiCGStab:  Solving for ILambda_30_0, Initial residual = 4.97630600896e-16, Final residual = 5.81021875402e-61, No Iterations 92
DILUPBiCGStab:  Solving for ILambda_31_0, Initial residual = 2.90909638121e-16, Final residual = 3.2186520268e-61, No Iterations 54
DILUPBiCGStab:  Solving for ILambda_32_0, Initial residual = 1.60642198859e-15, Final residual = 4.12945481295e-75, No Iterations 2
DILUPBiCGStab:  Solving for ILambda_33_0, Initial residual = 1.70044872857e-15, Final residual = 1.38626683533e-74, No Iterations 2
DILUPBiCGStab:  Solving for ILambda_34_0, Initial residual = 1.78357501865e-15, Final residual = 4.63040348509e-75, No Iterations 2
DILUPBiCGStab:  Solving for ILambda_35_0, Initial residual = 1.76193304083e-15, Final residual = 8.45903239688e-75, No Iterations 2
DILUPBiCGStab:  Solving for ILambda_36_0, Initial residual = 1.78433412856e-15, Final residual = 5.11357660977e-75, No Iterations 2
DILUPBiCGStab:  Solving for ILambda_37_0, Initial residual = 1.92820595229e-15, Final residual = 2.00686196593e-74, No Iterations 2
DILUPBiCGStab:  Solving for ILambda_38_0, Initial residual = 1.82645397331e-15, Final residual = 3.28454371453e-61, No Iterations 2
DILUPBiCGStab:  Solving for ILambda_39_0, Initial residual = 1.71956594866e-15, Final residual = 4.07410914239e-75, No Iterations 2
DILUPBiCGStab:  Solving for ILambda_40_0, Initial residual = 2.01342247943e-15, Final residual = 9.04143142964e-61, No Iterations 58
DILUPBiCGStab:  Solving for ILambda_41_0, Initial residual = 2.2383190964e-15, Final residual = 9.20863719929e-61, No Iterations 96
DILUPBiCGStab:  Solving for ILambda_42_0, Initial residual = 2.50023385474e-15, Final residual = 5.65993436659e-61, No Iterations 117
DILUPBiCGStab:  Solving for ILambda_43_0, Initial residual = 2.96864605361e-15, Final residual = 3.21764600859e-61, No Iterations 133
DILUPBiCGStab:  Solving for ILambda_44_0, Initial residual = 3.36183167462e-15, Final residual = 5.47547732658e-61, No Iterations 126
DILUPBiCGStab:  Solving for ILambda_45_0, Initial residual = 3.16939413125e-15, Final residual = 4.14736600849e-61, No Iterations 113
DILUPBiCGStab:  Solving for ILambda_46_0, Initial residual = 2.19742128657e-15, Final residual = 7.11446523798e-61, No Iterations 94
DILUPBiCGStab:  Solving for ILambda_47_0, Initial residual = 2.16977976666e-15, Final residual = 9.82265932096e-61, No Iterations 61
DILUPBiCGStab:  Solving for ILambda_48_0, Initial residual = 1.8319522116e-15, Final residual = 7.46458216562e-61, No Iterations 36
DILUPBiCGStab:  Solving for ILambda_49_0, Initial residual = 1.93579042299e-15, Final residual = 6.51408876137e-61, No Iterations 38
DILUPBiCGStab:  Solving for ILambda_50_0, Initial residual = 1.95699096495e-15, Final residual = 2.36396629234e-61, No Iterations 38
DILUPBiCGStab:  Solving for ILambda_51_0, Initial residual = 1.71336485679e-15, Final residual = 3.3225591916e-61, No Iterations 37
DILUPBiCGStab:  Solving for ILambda_52_0, Initial residual = 1.84838013269e-15, Final residual = 2.90114866366e-61, No Iterations 39
DILUPBiCGStab:  Solving for ILambda_53_0, Initial residual = 1.92274620965e-15, Final residual = 6.42081291847e-61, No Iterations 39
DILUPBiCGStab:  Solving for ILambda_54_0, Initial residual = 1.69877338194e-15, Final residual = 1.85017262947e-61, No Iterations 37
DILUPBiCGStab:  Solving for ILambda_55_0, Initial residual = 1.57937532413e-15, Final residual = 3.20431016203e-61, No Iterations 37
DILUPBiCGStab:  Solving for ILambda_56_0, Initial residual = 2.06230798699e-15, Final residual = 5.01387370001e-61, No Iterations 62
DILUPBiCGStab:  Solving for ILambda_57_0, Initial residual = 2.5703779664e-15, Final residual = 9.93862768381e-61, No Iterations 91
DILUPBiCGStab:  Solving for ILambda_58_0, Initial residual = 2.63359836428e-15, Final residual = 7.02277952346e-61, No Iterations 115
DILUPBiCGStab:  Solving for ILambda_59_0, Initial residual = 2.97666552298e-15, Final residual = 6.94937880834e-61, No Iterations 128
DILUPBiCGStab:  Solving for ILambda_60_0, Initial residual = 3.13594203145e-15, Final residual = 6.0305712127e-61, No Iterations 126
DILUPBiCGStab:  Solving for ILambda_61_0, Initial residual = 2.5479334436e-15, Final residual = 4.48356953731e-61, No Iterations 122
DILUPBiCGStab:  Solving for ILambda_62_0, Initial residual = 2.51778365197e-15, Final residual = 9.97047272202e-62, No Iterations 97
DILUPBiCGStab:  Solving for ILambda_63_0, Initial residual = 1.69737792541e-15, Final residual = 7.99489019407e-61, No Iterations 60
DILUPBiCGStab:  Solving for ILambda_64_0, Initial residual = 1.55517911138e-15, Final residual = 6.31562866341e-62, No Iterations 36
DILUPBiCGStab:  Solving for ILambda_65_0, Initial residual = 1.60804406379e-15, Final residual = 5.18381819144e-61, No Iterations 39
DILUPBiCGStab:  Solving for ILambda_66_0, Initial residual = 1.66998768944e-15, Final residual = 1.22335159361e-61, No Iterations 40
DILUPBiCGStab:  Solving for ILambda_67_0, Initial residual = 1.86300061737e-15, Final residual = 2.75924747888e-61, No Iterations 39
DILUPBiCGStab:  Solving for ILambda_68_0, Initial residual = 1.70889269104e-15, Final residual = 6.25398166518e-61, No Iterations 40
DILUPBiCGStab:  Solving for ILambda_69_0, Initial residual = 1.86300690584e-15, Final residual = 1.41350916648e-61, No Iterations 39
DILUPBiCGStab:  Solving for ILambda_70_0, Initial residual = 1.81766825576e-15, Final residual = 2.84642967109e-62, No Iterations 40
DILUPBiCGStab:  Solving for ILambda_71_0, Initial residual = 1.65068961205e-15, Final residual = 2.26550132389e-61, No Iterations 35
DILUPBiCGStab:  Solving for ILambda_72_0, Initial residual = 1.70619355568e-15, Final residual = 7.23249451768e-61, No Iterations 62
DILUPBiCGStab:  Solving for ILambda_73_0, Initial residual = 2.56235551211e-15, Final residual = 8.65532133344e-61, No Iterations 93
DILUPBiCGStab:  Solving for ILambda_74_0, Initial residual = 3.02572797877e-15, Final residual = 6.22540163033e-61, No Iterations 115
DILUPBiCGStab:  Solving for ILambda_75_0, Initial residual = 3.3101838708e-15, Final residual = 3.01512538747e-61, No Iterations 132
DILUPBiCGStab:  Solving for ILambda_76_0, Initial residual = 3.62635679674e-15, Final residual = 4.25233556875e-61, No Iterations 125
DILUPBiCGStab:  Solving for ILambda_77_0, Initial residual = 2.4356388415e-15, Final residual = 4.1437252808e-61, No Iterations 117
DILUPBiCGStab:  Solving for ILambda_78_0, Initial residual = 2.7664858741e-15, Final residual = 6.76101838481e-61, No Iterations 94
DILUPBiCGStab:  Solving for ILambda_79_0, Initial residual = 1.99765402995e-15, Final residual = 2.70295815121e-61, No Iterations 58
DILUPBiCGStab:  Solving for ILambda_80_0, Initial residual = 1.65582092013e-15, Final residual = 3.13684861625e-75, No Iterations 2
DILUPBiCGStab:  Solving for ILambda_81_0, Initial residual = 1.81193274451e-15, Final residual = 2.76546123047e-75, No Iterations 2
DILUPBiCGStab:  Solving for ILambda_82_0, Initial residual = 1.904363243e-15, Final residual = 1.83899747502e-75, No Iterations 2
DILUPBiCGStab:  Solving for ILambda_83_0, Initial residual = 1.8045909642e-15, Final residual = 3.63289867747e-74, No Iterations 2
DILUPBiCGStab:  Solving for ILambda_84_0, Initial residual = 1.67918261442e-15, Final residual = 2.87746887821e-72, No Iterations 2
DILUPBiCGStab:  Solving for ILambda_85_0, Initial residual = 1.69246909327e-15, Final residual = 1.39167592885e-72, No Iterations 2
DILUPBiCGStab:  Solving for ILambda_86_0, Initial residual = 1.63541595484e-15, Final residual = 4.41211478142e-61, No Iterations 2
DILUPBiCGStab:  Solving for ILambda_87_0, Initial residual = 1.51772725666e-15, Final residual = 9.39412306941e-72, No Iterations 2
DILUPBiCGStab:  Solving for ILambda_88_0, Initial residual = 1.73929562553e-15, Final residual = 5.83748087659e-61, No Iterations 59
DILUPBiCGStab:  Solving for ILambda_89_0, Initial residual = 2.98132240195e-15, Final residual = 6.70367655883e-61, No Iterations 96
DILUPBiCGStab:  Solving for ILambda_90_0, Initial residual = 2.60408155194e-15, Final residual = 7.37794510535e-61, No Iterations 116
DILUPBiCGStab:  Solving for ILambda_91_0, Initial residual = 2.72862942208e-15, Final residual = 3.60917419164e-61, No Iterations 131
DILUPBiCGStab:  Solving for ILambda_92_0, Initial residual = 3.57307242875e-15, Final residual = 2.49374575642e-61, No Iterations 129
DILUPBiCGStab:  Solving for ILambda_93_0, Initial residual = 2.73028270595e-15, Final residual = 6.38463486087e-61, No Iterations 112
DILUPBiCGStab:  Solving for ILambda_94_0, Initial residual = 2.15565838694e-15, Final residual = 9.25702807509e-62, No Iterations 95
DILUPBiCGStab:  Solving for ILambda_95_0, Initial residual = 2.27232671682e-15, Final residual = 2.82200175946e-61, No Iterations 63
DILUPBiCGStab:  Solving for ILambda_96_0, Initial residual = 2.79196711269e-16, Final residual = 9.93067849484e-61, No Iterations 30
DILUPBiCGStab:  Solving for ILambda_97_0, Initial residual = 3.77029543546e-16, Final residual = 1.29083475474e-61, No Iterations 29
DILUPBiCGStab:  Solving for ILambda_98_0, Initial residual = 3.56467600157e-16, Final residual = 6.81407967005e-61, No Iterations 29
DILUPBiCGStab:  Solving for ILambda_99_0, Initial residual = 4.12145862991e-16, Final residual = 9.4037347854e-61, No Iterations 31
DILUPBiCGStab:  Solving for ILambda_100_0, Initial residual = 4.10648808342e-16, Final residual = 4.30844996985e-61, No Iterations 31
DILUPBiCGStab:  Solving for ILambda_101_0, Initial residual = 4.04058516365e-16, Final residual = 3.25767484039e-61, No Iterations 30
DILUPBiCGStab:  Solving for ILambda_102_0, Initial residual = 4.08097112162e-16, Final residual = 3.67673581724e-61, No Iterations 30
DILUPBiCGStab:  Solving for ILambda_103_0, Initial residual = 3.19936108978e-16, Final residual = 2.97352274291e-61, No Iterations 29
DILUPBiCGStab:  Solving for ILambda_104_0, Initial residual = 2.93901198036e-16, Final residual = 2.84946707037e-61, No Iterations 56
DILUPBiCGStab:  Solving for ILambda_105_0, Initial residual = 6.04945349348e-16, Final residual = 5.94046383483e-61, No Iterations 89
DILUPBiCGStab:  Solving for ILambda_106_0, Initial residual = 5.58110590017e-16, Final residual = 9.71578656521e-61, No Iterations 104
DILUPBiCGStab:  Solving for ILambda_107_0, Initial residual = 5.89926099069e-16, Final residual = 5.56047547531e-61, No Iterations 125
DILUPBiCGStab:  Solving for ILambda_108_0, Initial residual = 6.45158496499e-16, Final residual = 2.40099293409e-61, No Iterations 124
DILUPBiCGStab:  Solving for ILambda_109_0, Initial residual = 5.73542430972e-16, Final residual = 6.24068089462e-61, No Iterations 111
DILUPBiCGStab:  Solving for ILambda_110_0, Initial residual = 5.76267214155e-16, Final residual = 4.31041869421e-61, No Iterations 88
DILUPBiCGStab:  Solving for ILambda_111_0, Initial residual = 3.25682826884e-16, Final residual = 5.1701373093e-61, No Iterations 55
DILUPBiCGStab:  Solving for ILambda_112_0, Initial residual = 3.07483033236e-16, Final residual = 1.62328089334e-61, No Iterations 2
DILUPBiCGStab:  Solving for ILambda_113_0, Initial residual = 4.17012332925e-16, Final residual = 6.29065479084e-61, No Iterations 2
DILUPBiCGStab:  Solving for ILambda_114_0, Initial residual = 4.00731224282e-16, Final residual = 8.53820501689e-73, No Iterations 2
DILUPBiCGStab:  Solving for ILambda_115_0, Initial residual = 4.10381330528e-16, Final residual = 2.30425995346e-75, No Iterations 2
DILUPBiCGStab:  Solving for ILambda_116_0, Initial residual = 4.01094919965e-16, Final residual = 1.86768664516e-61, No Iterations 2
DILUPBiCGStab:  Solving for ILambda_117_0, Initial residual = 3.6480745761e-16, Final residual = 1.18842130057e-61, No Iterations 2
DILUPBiCGStab:  Solving for ILambda_118_0, Initial residual = 3.82145311025e-16, Final residual = 2.90790375994e-61, No Iterations 2
DILUPBiCGStab:  Solving for ILambda_119_0, Initial residual = 2.73040281361e-16, Final residual = 1.35415133968e-61, No Iterations 2
DILUPBiCGStab:  Solving for ILambda_120_0, Initial residual = 3.3903298182e-16, Final residual = 8.49857383902e-62, No Iterations 56
DILUPBiCGStab:  Solving for ILambda_121_0, Initial residual = 5.71436074386e-16, Final residual = 2.8730566212e-61, No Iterations 94
DILUPBiCGStab:  Solving for ILambda_122_0, Initial residual = 5.97146948444e-16, Final residual = 8.80201526786e-61, No Iterations 113
DILUPBiCGStab:  Solving for ILambda_123_0, Initial residual = 6.28802802543e-16, Final residual = 7.81090907662e-61, No Iterations 131
DILUPBiCGStab:  Solving for ILambda_124_0, Initial residual = 6.01171411113e-16, Final residual = 4.37545081735e-61, No Iterations 127
DILUPBiCGStab:  Solving for ILambda_125_0, Initial residual = 6.25121380264e-16, Final residual = 9.71003005962e-62, No Iterations 112
DILUPBiCGStab:  Solving for ILambda_126_0, Initial residual = 6.29366491814e-16, Final residual = 1.27075213716e-61, No Iterations 92
DILUPBiCGStab:  Solving for ILambda_127_0, Initial residual = 2.95233302456e-16, Final residual = 5.67591176831e-61, No Iterations 56
min/max(T) = 1000, 1000
ExecutionTime = 3525.86 s  ClockTime = 3526 s

writeObjects writeObjects1.writeObjects write:
    writing object a
    writing object qem
End

