/*---------------------------------------------------------------------------*\
| =========                 |                                                 |
| \\      /  F ield         | OpenFOAM: The Open Source CFD Toolbox           |
|  \\    /   O peration     | Version:  2306                                  |
|   \\  /    A nd           | Website:  www.openfoam.com                      |
|    \\/     M anipulation  |                                                 |
\*---------------------------------------------------------------------------*/
Build  : _fbf00d6b-20230626 OPENFOAM=2306 version=2306
Arch   : "LSB;label=32;scalar=64"
Exec   : fireRADFoam_MaCFP
Date   : Mar 13 2024
Time   : 03:33:59
Host   : pop-os
PID    : 199311
I/O    : uncollated
Case   : /home/rafay/Desktop/Study/Radiative_Heat_Transfer/Local_copy_RHT2324/01_Projects/02_Rafay/Case_1_q1D_SolidAngle/new_case3/th_6-ph_12/tau_0.0001/res_8
nProcs : 1
trapFpe: Floating point exception trapping enabled (FOAM_SIGFPE).
fileModificationChecking : Monitoring run-time modified files using timeStampMaster (fileModificationSkew 5, maxFileModificationPolls 20)
allowSystemOperations : Allowing user-supplied system call operations

// * * * * * * * * * * * * * * * * * * * * * * * * * * * * * * * * * * * * * //
Create time

Create mesh for time = 0


PIMPLE: no residual control data found. Calculations will employ 10 corrector loops

Reading thermophysical properties

Selecting thermodynamics package 
{
    type            hePsiThermo;
    mixture         singleStepReactingMixture;
    transport       sutherland;
    thermo          janaf;
    energy          sensibleEnthalpy;
    equationOfState perfectGas;
    specie          specie;
}

Selecting chemistryReader foamChemistryReader
    elements not defined in "/home/rafay/Desktop/Study/Radiative_Heat_Transfer/Local_copy_RHT2324/01_Projects/02_Rafay/Case_1_q1D_SolidAngle/new_case3/th_6-ph_12/tau_0.0001/res_8/constant/reactions"
Fuel heat of combustion :47168962.4726
stoichiometric air-fuel ratio :14.6914056505
stoichiometric oxygen-fuel ratio :3.42181919285
Maximum products mass concentrations:
    H2O: 0.0818486943001
    CO2: 0.199950099979
    N2: 0.718201205721
Creating component thermo properties:
    multi-component carrier - 6 species
    no liquid components
    no solid components
Creating field rho


Reading field U

Reading/calculating face flux field phi

Selecting radiationModel fvDOM
Selecting absorptionEmissionModel constantAbsorptionEmission
Selecting scatterModel none
Selecting sootModel none
fvDOM : Allocated 288 rays with average orientation:
	I0 : dAve : 	(0.000387488209079 0.00591192763451 0.0163624617374) : omega : 	0.0175372336349 : d : 	(0.0169275754541 0.25826489366 0.965925826289)
	I1 : dAve : 	(0.00115583459655 0.00581077291359 0.0163624617374) : omega : 	0.0175372336349 : d : 	(0.050493090853 0.253845909725 0.965925826289)
	I2 : dAve : 	(0.00190440433361 0.00561019425706 0.0163624617374) : omega : 	0.0175372336349 : d : 	(0.083194655468 0.245083551895 0.965925826289)
	I3 : dAve : 	(0.00262038918453 0.00531362362136 0.0163624617374) : omega : 	0.0175372336349 : d : 	(0.114472736462 0.232127746542 0.965925826289)
	I4 : dAve : 	(0.00329153844998 0.00492613541228 0.0163624617374) : omega : 	0.0175372336349 : d : 	(0.143792157198 0.215200171088 0.965925826289)
	I5 : dAve : 	(0.00390636857998 0.00445435966052 0.0163624617374) : omega : 	0.0175372336349 : d : 	(0.170651254257 0.194590461042 0.965925826289)
	I6 : dAve : 	(0.00445435966052 0.00390636857998 0.0163624617374) : omega : 	0.0175372336349 : d : 	(0.194590461042 0.170651254257 0.965925826289)
	I7 : dAve : 	(0.00492613541228 0.00329153844998 0.0163624617374) : omega : 	0.0175372336349 : d : 	(0.215200171088 0.143792157198 0.965925826289)
	I8 : dAve : 	(0.00531362362136 0.00262038918453 0.0163624617374) : omega : 	0.0175372336349 : d : 	(0.232127746542 0.114472736462 0.965925826289)
	I9 : dAve : 	(0.00561019425706 0.00190440433361 0.0163624617374) : omega : 	0.0175372336349 : d : 	(0.245083551895 0.083194655468 0.965925826289)
	I10 : dAve : 	(0.00581077291359 0.00115583459655 0.0163624617374) : omega : 	0.0175372336349 : d : 	(0.253845909725 0.050493090853 0.965925826289)
	I11 : dAve : 	(0.00591192763451 0.000387488209079 0.0163624617374) : omega : 	0.0175372336349 : d : 	(0.25826489366 0.0169275754541 0.965925826289)
	I12 : dAve : 	(0.00591192763451 -0.000387488209079 0.0163624617374) : omega : 	0.0175372336349 : d : 	(0.25826489366 -0.0169275754541 0.965925826289)
	I13 : dAve : 	(0.00581077291359 -0.00115583459655 0.0163624617374) : omega : 	0.0175372336349 : d : 	(0.253845909725 -0.050493090853 0.965925826289)
	I14 : dAve : 	(0.00561019425706 -0.00190440433361 0.0163624617374) : omega : 	0.0175372336349 : d : 	(0.245083551895 -0.083194655468 0.965925826289)
	I15 : dAve : 	(0.00531362362136 -0.00262038918453 0.0163624617374) : omega : 	0.0175372336349 : d : 	(0.232127746542 -0.114472736462 0.965925826289)
	I16 : dAve : 	(0.00492613541228 -0.00329153844998 0.0163624617374) : omega : 	0.0175372336349 : d : 	(0.215200171088 -0.143792157198 0.965925826289)
	I17 : dAve : 	(0.00445435966052 -0.00390636857998 0.0163624617374) : omega : 	0.0175372336349 : d : 	(0.194590461042 -0.170651254257 0.965925826289)
	I18 : dAve : 	(0.00390636857998 -0.00445435966052 0.0163624617374) : omega : 	0.0175372336349 : d : 	(0.170651254257 -0.194590461042 0.965925826289)
	I19 : dAve : 	(0.00329153844998 -0.00492613541228 0.0163624617374) : omega : 	0.0175372336349 : d : 	(0.143792157198 -0.215200171088 0.965925826289)
	I20 : dAve : 	(0.00262038918453 -0.00531362362136 0.0163624617374) : omega : 	0.0175372336349 : d : 	(0.114472736462 -0.232127746542 0.965925826289)
	I21 : dAve : 	(0.00190440433361 -0.00561019425706 0.0163624617374) : omega : 	0.0175372336349 : d : 	(0.083194655468 -0.245083551895 0.965925826289)
	I22 : dAve : 	(0.00115583459655 -0.00581077291359 0.0163624617374) : omega : 	0.0175372336349 : d : 	(0.050493090853 -0.253845909725 0.965925826289)
	I23 : dAve : 	(0.000387488209079 -0.00591192763451 0.0163624617374) : omega : 	0.0175372336349 : d : 	(0.0169275754541 -0.25826489366 0.965925826289)
	I24 : dAve : 	(-0.000387488209079 -0.00591192763451 0.0163624617374) : omega : 	0.0175372336349 : d : 	(-0.0169275754541 -0.25826489366 0.965925826289)
	I25 : dAve : 	(-0.00115583459655 -0.00581077291359 0.0163624617374) : omega : 	0.0175372336349 : d : 	(-0.050493090853 -0.253845909725 0.965925826289)
	I26 : dAve : 	(-0.00190440433361 -0.00561019425706 0.0163624617374) : omega : 	0.0175372336349 : d : 	(-0.083194655468 -0.245083551895 0.965925826289)
	I27 : dAve : 	(-0.00262038918453 -0.00531362362136 0.0163624617374) : omega : 	0.0175372336349 : d : 	(-0.114472736462 -0.232127746542 0.965925826289)
	I28 : dAve : 	(-0.00329153844998 -0.00492613541228 0.0163624617374) : omega : 	0.0175372336349 : d : 	(-0.143792157198 -0.215200171088 0.965925826289)
	I29 : dAve : 	(-0.00390636857998 -0.00445435966052 0.0163624617374) : omega : 	0.0175372336349 : d : 	(-0.170651254257 -0.194590461042 0.965925826289)
	I30 : dAve : 	(-0.00445435966052 -0.00390636857998 0.0163624617374) : omega : 	0.0175372336349 : d : 	(-0.194590461042 -0.170651254257 0.965925826289)
	I31 : dAve : 	(-0.00492613541228 -0.00329153844998 0.0163624617374) : omega : 	0.0175372336349 : d : 	(-0.215200171088 -0.143792157198 0.965925826289)
	I32 : dAve : 	(-0.00531362362136 -0.00262038918453 0.0163624617374) : omega : 	0.0175372336349 : d : 	(-0.232127746542 -0.114472736462 0.965925826289)
	I33 : dAve : 	(-0.00561019425706 -0.00190440433361 0.0163624617374) : omega : 	0.0175372336349 : d : 	(-0.245083551895 -0.083194655468 0.965925826289)
	I34 : dAve : 	(-0.00581077291359 -0.00115583459655 0.0163624617374) : omega : 	0.0175372336349 : d : 	(-0.253845909725 -0.050493090853 0.965925826289)
	I35 : dAve : 	(-0.00591192763451 -0.000387488209079 0.0163624617374) : omega : 	0.0175372336349 : d : 	(-0.25826489366 -0.0169275754541 0.965925826289)
	I36 : dAve : 	(-0.00591192763451 0.000387488209079 0.0163624617374) : omega : 	0.0175372336349 : d : 	(-0.25826489366 0.0169275754541 0.965925826289)
	I37 : dAve : 	(-0.00581077291359 0.00115583459655 0.0163624617374) : omega : 	0.0175372336349 : d : 	(-0.253845909725 0.050493090853 0.965925826289)
	I38 : dAve : 	(-0.00561019425706 0.00190440433361 0.0163624617374) : omega : 	0.0175372336349 : d : 	(-0.245083551895 0.083194655468 0.965925826289)
	I39 : dAve : 	(-0.00531362362136 0.00262038918453 0.0163624617374) : omega : 	0.0175372336349 : d : 	(-0.232127746542 0.114472736462 0.965925826289)
	I40 : dAve : 	(-0.00492613541228 0.00329153844998 0.0163624617374) : omega : 	0.0175372336349 : d : 	(-0.215200171088 0.143792157198 0.965925826289)
	I41 : dAve : 	(-0.00445435966052 0.00390636857998 0.0163624617374) : omega : 	0.0175372336349 : d : 	(-0.194590461042 0.170651254257 0.965925826289)
	I42 : dAve : 	(-0.00390636857998 0.00445435966052 0.0163624617374) : omega : 	0.0175372336349 : d : 	(-0.170651254257 0.194590461042 0.965925826289)
	I43 : dAve : 	(-0.00329153844998 0.00492613541228 0.0163624617374) : omega : 	0.0175372336349 : d : 	(-0.143792157198 0.215200171088 0.965925826289)
	I44 : dAve : 	(-0.00262038918453 0.00531362362136 0.0163624617374) : omega : 	0.0175372336349 : d : 	(-0.114472736462 0.232127746542 0.965925826289)
	I45 : dAve : 	(-0.00190440433361 0.00561019425706 0.0163624617374) : omega : 	0.0175372336349 : d : 	(-0.083194655468 0.245083551895 0.965925826289)
	I46 : dAve : 	(-0.00115583459655 0.00581077291359 0.0163624617374) : omega : 	0.0175372336349 : d : 	(-0.050493090853 0.253845909725 0.965925826289)
	I47 : dAve : 	(-0.000387488209079 0.00591192763451 0.0163624617374) : omega : 	0.0175372336349 : d : 	(-0.0169275754541 0.25826489366 0.965925826289)
	I48 : dAve : 	(0.00223973005487 0.034171677215 0.0327249234749) : omega : 	0.0479126133149 : d : 	(0.0462469961895 0.70559281129 0.707106781187)
	I49 : dAve : 	(0.00668086776241 0.0335869903436 0.0327249234749) : omega : 	0.0479126133149 : d : 	(0.137949689641 0.693519922661 0.707106781187)
	I50 : dAve : 	(0.0110076939702 0.0324276207555 0.0327249234749) : omega : 	0.0479126133149 : d : 	(0.227292025657 0.669580715876 0.707106781187)
	I51 : dAve : 	(0.0151461754823 0.0307134055855 0.0327249234749) : omega : 	0.0479126133149 : d : 	(0.312745332096 0.634184797399 0.707106781187)
	I52 : dAve : 	(0.0190255017326 0.0284736755306 0.0327249234749) : omega : 	0.0479126133149 : d : 	(0.392847479194 0.58793780121 0.707106781187)
	I53 : dAve : 	(0.0225792963734 0.025746752993 0.0327249234749) : omega : 	0.0479126133149 : d : 	(0.466227897004 0.531631026234 0.707106781187)
	I54 : dAve : 	(0.025746752993 0.0225792963734 0.0327249234749) : omega : 	0.0479126133149 : d : 	(0.531631026234 0.466227897004 0.707106781187)
	I55 : dAve : 	(0.0284736755306 0.0190255017326 0.0327249234749) : omega : 	0.0479126133149 : d : 	(0.58793780121 0.392847479194 0.707106781187)
	I56 : dAve : 	(0.0307134055855 0.0151461754823 0.0327249234749) : omega : 	0.0479126133149 : d : 	(0.634184797399 0.312745332096 0.707106781187)
	I57 : dAve : 	(0.0324276207555 0.0110076939702 0.0327249234749) : omega : 	0.0479126133149 : d : 	(0.669580715876 0.227292025657 0.707106781187)
	I58 : dAve : 	(0.0335869903436 0.00668086776241 0.0327249234749) : omega : 	0.0479126133149 : d : 	(0.693519922661 0.137949689641 0.707106781187)
	I59 : dAve : 	(0.034171677215 0.00223973005487 0.0327249234749) : omega : 	0.0479126133149 : d : 	(0.70559281129 0.0462469961895 0.707106781187)
	I60 : dAve : 	(0.034171677215 -0.00223973005487 0.0327249234749) : omega : 	0.0479126133149 : d : 	(0.70559281129 -0.0462469961895 0.707106781187)
	I61 : dAve : 	(0.0335869903436 -0.00668086776241 0.0327249234749) : omega : 	0.0479126133149 : d : 	(0.693519922661 -0.137949689641 0.707106781187)
	I62 : dAve : 	(0.0324276207555 -0.0110076939702 0.0327249234749) : omega : 	0.0479126133149 : d : 	(0.669580715876 -0.227292025657 0.707106781187)
	I63 : dAve : 	(0.0307134055855 -0.0151461754823 0.0327249234749) : omega : 	0.0479126133149 : d : 	(0.634184797399 -0.312745332096 0.707106781187)
	I64 : dAve : 	(0.0284736755306 -0.0190255017326 0.0327249234749) : omega : 	0.0479126133149 : d : 	(0.58793780121 -0.392847479194 0.707106781187)
	I65 : dAve : 	(0.025746752993 -0.0225792963734 0.0327249234749) : omega : 	0.0479126133149 : d : 	(0.531631026234 -0.466227897004 0.707106781187)
	I66 : dAve : 	(0.0225792963734 -0.025746752993 0.0327249234749) : omega : 	0.0479126133149 : d : 	(0.466227897004 -0.531631026234 0.707106781187)
	I67 : dAve : 	(0.0190255017326 -0.0284736755306 0.0327249234749) : omega : 	0.0479126133149 : d : 	(0.392847479194 -0.58793780121 0.707106781187)
	I68 : dAve : 	(0.0151461754823 -0.0307134055855 0.0327249234749) : omega : 	0.0479126133149 : d : 	(0.312745332096 -0.634184797399 0.707106781187)
	I69 : dAve : 	(0.0110076939702 -0.0324276207555 0.0327249234749) : omega : 	0.0479126133149 : d : 	(0.227292025657 -0.669580715876 0.707106781187)
	I70 : dAve : 	(0.00668086776241 -0.0335869903436 0.0327249234749) : omega : 	0.0479126133149 : d : 	(0.137949689641 -0.693519922661 0.707106781187)
	I71 : dAve : 	(0.00223973005487 -0.034171677215 0.0327249234749) : omega : 	0.0479126133149 : d : 	(0.0462469961895 -0.70559281129 0.707106781187)
	I72 : dAve : 	(-0.00223973005487 -0.034171677215 0.0327249234749) : omega : 	0.0479126133149 : d : 	(-0.0462469961895 -0.70559281129 0.707106781187)
	I73 : dAve : 	(-0.00668086776241 -0.0335869903436 0.0327249234749) : omega : 	0.0479126133149 : d : 	(-0.137949689641 -0.693519922661 0.707106781187)
	I74 : dAve : 	(-0.0110076939702 -0.0324276207555 0.0327249234749) : omega : 	0.0479126133149 : d : 	(-0.227292025657 -0.669580715876 0.707106781187)
	I75 : dAve : 	(-0.0151461754823 -0.0307134055855 0.0327249234749) : omega : 	0.0479126133149 : d : 	(-0.312745332096 -0.634184797399 0.707106781187)
	I76 : dAve : 	(-0.0190255017326 -0.0284736755306 0.0327249234749) : omega : 	0.0479126133149 : d : 	(-0.392847479194 -0.58793780121 0.707106781187)
	I77 : dAve : 	(-0.0225792963734 -0.025746752993 0.0327249234749) : omega : 	0.0479126133149 : d : 	(-0.466227897004 -0.531631026234 0.707106781187)
	I78 : dAve : 	(-0.025746752993 -0.0225792963734 0.0327249234749) : omega : 	0.0479126133149 : d : 	(-0.531631026234 -0.466227897004 0.707106781187)
	I79 : dAve : 	(-0.0284736755306 -0.0190255017326 0.0327249234749) : omega : 	0.0479126133149 : d : 	(-0.58793780121 -0.392847479194 0.707106781187)
	I80 : dAve : 	(-0.0307134055855 -0.0151461754823 0.0327249234749) : omega : 	0.0479126133149 : d : 	(-0.634184797399 -0.312745332096 0.707106781187)
	I81 : dAve : 	(-0.0324276207555 -0.0110076939702 0.0327249234749) : omega : 	0.0479126133149 : d : 	(-0.669580715876 -0.227292025657 0.707106781187)
	I82 : dAve : 	(-0.0335869903436 -0.00668086776241 0.0327249234749) : omega : 	0.0479126133149 : d : 	(-0.693519922661 -0.137949689641 0.707106781187)
	I83 : dAve : 	(-0.034171677215 -0.00223973005487 0.0327249234749) : omega : 	0.0479126133149 : d : 	(-0.70559281129 -0.0462469961895 0.707106781187)
	I84 : dAve : 	(-0.034171677215 0.00223973005487 0.0327249234749) : omega : 	0.0479126133149 : d : 	(-0.70559281129 0.0462469961895 0.707106781187)
	I85 : dAve : 	(-0.0335869903436 0.00668086776241 0.0327249234749) : omega : 	0.0479126133149 : d : 	(-0.693519922661 0.137949689641 0.707106781187)
	I86 : dAve : 	(-0.0324276207555 0.0110076939702 0.0327249234749) : omega : 	0.0479126133149 : d : 	(-0.669580715876 0.227292025657 0.707106781187)
	I87 : dAve : 	(-0.0307134055855 0.0151461754823 0.0327249234749) : omega : 	0.0479126133149 : d : 	(-0.634184797399 0.312745332096 0.707106781187)
	I88 : dAve : 	(-0.0284736755306 0.0190255017326 0.0327249234749) : omega : 	0.0479126133149 : d : 	(-0.58793780121 0.392847479194 0.707106781187)
	I89 : dAve : 	(-0.025746752993 0.0225792963734 0.0327249234749) : omega : 	0.0479126133149 : d : 	(-0.531631026234 0.466227897004 0.707106781187)
	I90 : dAve : 	(-0.0225792963734 0.025746752993 0.0327249234749) : omega : 	0.0479126133149 : d : 	(-0.466227897004 0.531631026234 0.707106781187)
	I91 : dAve : 	(-0.0190255017326 0.0284736755306 0.0327249234749) : omega : 	0.0479126133149 : d : 	(-0.392847479194 0.58793780121 0.707106781187)
	I92 : dAve : 	(-0.0151461754823 0.0307134055855 0.0327249234749) : omega : 	0.0479126133149 : d : 	(-0.312745332096 0.634184797399 0.707106781187)
	I93 : dAve : 	(-0.0110076939702 0.0324276207555 0.0327249234749) : omega : 	0.0479126133149 : d : 	(-0.227292025657 0.669580715876 0.707106781187)
	I94 : dAve : 	(-0.00668086776241 0.0335869903436 0.0327249234749) : omega : 	0.0479126133149 : d : 	(-0.137949689641 0.693519922661 0.707106781187)
	I95 : dAve : 	(-0.00223973005487 0.034171677215 0.0327249234749) : omega : 	0.0479126133149 : d : 	(-0.0462469961895 0.70559281129 0.707106781187)
	I96 : dAve : 	(0.00409197190067 0.0624314267954 0.0163624617374) : omega : 	0.0654498469498 : d : 	(0.0631745716435 0.963857704949 0.258819045103)
	I97 : dAve : 	(0.0122059009283 0.0613632077737 0.0163624617374) : omega : 	0.0654498469498 : d : 	(0.188442780494 0.947365832386 0.258819045103)
	I98 : dAve : 	(0.0201109836069 0.0592450472539 0.0163624617374) : omega : 	0.0654498469498 : d : 	(0.310486681125 0.914664267771 0.258819045103)
	I99 : dAve : 	(0.0276719617802 0.0561131875497 0.0163624617374) : omega : 	0.0654498469498 : d : 	(0.427218068558 0.866312543941 0.258819045103)
	I100 : dAve : 	(0.0347594650153 0.052021215649 0.0163624617374) : omega : 	0.0654498469498 : d : 	(0.536639636391 0.803137972298 0.258819045103)
	I101 : dAve : 	(0.0412522241668 0.0470391463256 0.0163624617374) : omega : 	0.0654498469498 : d : 	(0.636879151261 0.726221487276 0.258819045103)
	I102 : dAve : 	(0.0470391463256 0.0412522241668 0.0163624617374) : omega : 	0.0654498469498 : d : 	(0.726221487276 0.636879151261 0.258819045103)
	I103 : dAve : 	(0.052021215649 0.0347594650153 0.0163624617374) : omega : 	0.0654498469498 : d : 	(0.803137972298 0.536639636391 0.258819045103)
	I104 : dAve : 	(0.0561131875497 0.0276719617802 0.0163624617374) : omega : 	0.0654498469498 : d : 	(0.866312543941 0.427218068558 0.258819045103)
	I105 : dAve : 	(0.0592450472539 0.0201109836069 0.0163624617374) : omega : 	0.0654498469498 : d : 	(0.914664267771 0.310486681125 0.258819045103)
	I106 : dAve : 	(0.0613632077737 0.0122059009283 0.0163624617374) : omega : 	0.0654498469498 : d : 	(0.947365832386 0.188442780494 0.258819045103)
	I107 : dAve : 	(0.0624314267954 0.00409197190067 0.0163624617374) : omega : 	0.0654498469498 : d : 	(0.963857704949 0.0631745716435 0.258819045103)
	I108 : dAve : 	(0.0624314267954 -0.00409197190067 0.0163624617374) : omega : 	0.0654498469498 : d : 	(0.963857704949 -0.0631745716435 0.258819045103)
	I109 : dAve : 	(0.0613632077737 -0.0122059009283 0.0163624617374) : omega : 	0.0654498469498 : d : 	(0.947365832386 -0.188442780494 0.258819045103)
	I110 : dAve : 	(0.0592450472539 -0.0201109836069 0.0163624617374) : omega : 	0.0654498469498 : d : 	(0.914664267771 -0.310486681125 0.258819045103)
	I111 : dAve : 	(0.0561131875497 -0.0276719617802 0.0163624617374) : omega : 	0.0654498469498 : d : 	(0.866312543941 -0.427218068558 0.258819045103)
	I112 : dAve : 	(0.052021215649 -0.0347594650153 0.0163624617374) : omega : 	0.0654498469498 : d : 	(0.803137972298 -0.536639636391 0.258819045103)
	I113 : dAve : 	(0.0470391463256 -0.0412522241668 0.0163624617374) : omega : 	0.0654498469498 : d : 	(0.726221487276 -0.636879151261 0.258819045103)
	I114 : dAve : 	(0.0412522241668 -0.0470391463256 0.0163624617374) : omega : 	0.0654498469498 : d : 	(0.636879151261 -0.726221487276 0.258819045103)
	I115 : dAve : 	(0.0347594650153 -0.052021215649 0.0163624617374) : omega : 	0.0654498469498 : d : 	(0.536639636391 -0.803137972298 0.258819045103)
	I116 : dAve : 	(0.0276719617802 -0.0561131875497 0.0163624617374) : omega : 	0.0654498469498 : d : 	(0.427218068558 -0.866312543941 0.258819045103)
	I117 : dAve : 	(0.0201109836069 -0.0592450472539 0.0163624617374) : omega : 	0.0654498469498 : d : 	(0.310486681125 -0.914664267771 0.258819045103)
	I118 : dAve : 	(0.0122059009283 -0.0613632077737 0.0163624617374) : omega : 	0.0654498469498 : d : 	(0.188442780494 -0.947365832386 0.258819045103)
	I119 : dAve : 	(0.00409197190067 -0.0624314267954 0.0163624617374) : omega : 	0.0654498469498 : d : 	(0.0631745716435 -0.963857704949 0.258819045103)
	I120 : dAve : 	(-0.00409197190067 -0.0624314267954 0.0163624617374) : omega : 	0.0654498469498 : d : 	(-0.0631745716435 -0.963857704949 0.258819045103)
	I121 : dAve : 	(-0.0122059009283 -0.0613632077737 0.0163624617374) : omega : 	0.0654498469498 : d : 	(-0.188442780494 -0.947365832386 0.258819045103)
	I122 : dAve : 	(-0.0201109836069 -0.0592450472539 0.0163624617374) : omega : 	0.0654498469498 : d : 	(-0.310486681125 -0.914664267771 0.258819045103)
	I123 : dAve : 	(-0.0276719617802 -0.0561131875497 0.0163624617374) : omega : 	0.0654498469498 : d : 	(-0.427218068558 -0.866312543941 0.258819045103)
	I124 : dAve : 	(-0.0347594650153 -0.052021215649 0.0163624617374) : omega : 	0.0654498469498 : d : 	(-0.536639636391 -0.803137972298 0.258819045103)
	I125 : dAve : 	(-0.0412522241668 -0.0470391463256 0.0163624617374) : omega : 	0.0654498469498 : d : 	(-0.636879151261 -0.726221487276 0.258819045103)
	I126 : dAve : 	(-0.0470391463256 -0.0412522241668 0.0163624617374) : omega : 	0.0654498469498 : d : 	(-0.726221487276 -0.636879151261 0.258819045103)
	I127 : dAve : 	(-0.052021215649 -0.0347594650153 0.0163624617374) : omega : 	0.0654498469498 : d : 	(-0.803137972298 -0.536639636391 0.258819045103)
	I128 : dAve : 	(-0.0561131875497 -0.0276719617802 0.0163624617374) : omega : 	0.0654498469498 : d : 	(-0.866312543941 -0.427218068558 0.258819045103)
	I129 : dAve : 	(-0.0592450472539 -0.0201109836069 0.0163624617374) : omega : 	0.0654498469498 : d : 	(-0.914664267771 -0.310486681125 0.258819045103)
	I130 : dAve : 	(-0.0613632077737 -0.0122059009283 0.0163624617374) : omega : 	0.0654498469498 : d : 	(-0.947365832386 -0.188442780494 0.258819045103)
	I131 : dAve : 	(-0.0624314267954 -0.00409197190067 0.0163624617374) : omega : 	0.0654498469498 : d : 	(-0.963857704949 -0.0631745716435 0.258819045103)
	I132 : dAve : 	(-0.0624314267954 0.00409197190067 0.0163624617374) : omega : 	0.0654498469498 : d : 	(-0.963857704949 0.0631745716435 0.258819045103)
	I133 : dAve : 	(-0.0613632077737 0.0122059009283 0.0163624617374) : omega : 	0.0654498469498 : d : 	(-0.947365832386 0.188442780494 0.258819045103)
	I134 : dAve : 	(-0.0592450472539 0.0201109836069 0.0163624617374) : omega : 	0.0654498469498 : d : 	(-0.914664267771 0.310486681125 0.258819045103)
	I135 : dAve : 	(-0.0561131875497 0.0276719617802 0.0163624617374) : omega : 	0.0654498469498 : d : 	(-0.866312543941 0.427218068558 0.258819045103)
	I136 : dAve : 	(-0.052021215649 0.0347594650153 0.0163624617374) : omega : 	0.0654498469498 : d : 	(-0.803137972298 0.536639636391 0.258819045103)
	I137 : dAve : 	(-0.0470391463256 0.0412522241668 0.0163624617374) : omega : 	0.0654498469498 : d : 	(-0.726221487276 0.636879151261 0.258819045103)
	I138 : dAve : 	(-0.0412522241668 0.0470391463256 0.0163624617374) : omega : 	0.0654498469498 : d : 	(-0.636879151261 0.726221487276 0.258819045103)
	I139 : dAve : 	(-0.0347594650153 0.052021215649 0.0163624617374) : omega : 	0.0654498469498 : d : 	(-0.536639636391 0.803137972298 0.258819045103)
	I140 : dAve : 	(-0.0276719617802 0.0561131875497 0.0163624617374) : omega : 	0.0654498469498 : d : 	(-0.427218068558 0.866312543941 0.258819045103)
	I141 : dAve : 	(-0.0201109836069 0.0592450472539 0.0163624617374) : omega : 	0.0654498469498 : d : 	(-0.310486681125 0.914664267771 0.258819045103)
	I142 : dAve : 	(-0.0122059009283 0.0613632077737 0.0163624617374) : omega : 	0.0654498469498 : d : 	(-0.188442780494 0.947365832386 0.258819045103)
	I143 : dAve : 	(-0.00409197190067 0.0624314267954 0.0163624617374) : omega : 	0.0654498469498 : d : 	(-0.0631745716435 0.963857704949 0.258819045103)
	I144 : dAve : 	(0.00409197190067 0.0624314267954 -0.0163624617374) : omega : 	0.0654498469498 : d : 	(0.0631745716435 0.963857704949 -0.258819045103)
	I145 : dAve : 	(0.0122059009283 0.0613632077737 -0.0163624617374) : omega : 	0.0654498469498 : d : 	(0.188442780494 0.947365832386 -0.258819045103)
	I146 : dAve : 	(0.0201109836069 0.0592450472539 -0.0163624617374) : omega : 	0.0654498469498 : d : 	(0.310486681125 0.914664267771 -0.258819045103)
	I147 : dAve : 	(0.0276719617802 0.0561131875497 -0.0163624617374) : omega : 	0.0654498469498 : d : 	(0.427218068558 0.866312543941 -0.258819045103)
	I148 : dAve : 	(0.0347594650153 0.052021215649 -0.0163624617374) : omega : 	0.0654498469498 : d : 	(0.536639636391 0.803137972298 -0.258819045103)
	I149 : dAve : 	(0.0412522241668 0.0470391463256 -0.0163624617374) : omega : 	0.0654498469498 : d : 	(0.636879151261 0.726221487276 -0.258819045103)
	I150 : dAve : 	(0.0470391463256 0.0412522241668 -0.0163624617374) : omega : 	0.0654498469498 : d : 	(0.726221487276 0.636879151261 -0.258819045103)
	I151 : dAve : 	(0.052021215649 0.0347594650153 -0.0163624617374) : omega : 	0.0654498469498 : d : 	(0.803137972298 0.536639636391 -0.258819045103)
	I152 : dAve : 	(0.0561131875497 0.0276719617802 -0.0163624617374) : omega : 	0.0654498469498 : d : 	(0.866312543941 0.427218068558 -0.258819045103)
	I153 : dAve : 	(0.0592450472539 0.0201109836069 -0.0163624617374) : omega : 	0.0654498469498 : d : 	(0.914664267771 0.310486681125 -0.258819045103)
	I154 : dAve : 	(0.0613632077737 0.0122059009283 -0.0163624617374) : omega : 	0.0654498469498 : d : 	(0.947365832386 0.188442780494 -0.258819045103)
	I155 : dAve : 	(0.0624314267954 0.00409197190067 -0.0163624617374) : omega : 	0.0654498469498 : d : 	(0.963857704949 0.0631745716435 -0.258819045103)
	I156 : dAve : 	(0.0624314267954 -0.00409197190067 -0.0163624617374) : omega : 	0.0654498469498 : d : 	(0.963857704949 -0.0631745716435 -0.258819045103)
	I157 : dAve : 	(0.0613632077737 -0.0122059009283 -0.0163624617374) : omega : 	0.0654498469498 : d : 	(0.947365832386 -0.188442780494 -0.258819045103)
	I158 : dAve : 	(0.0592450472539 -0.0201109836069 -0.0163624617374) : omega : 	0.0654498469498 : d : 	(0.914664267771 -0.310486681125 -0.258819045103)
	I159 : dAve : 	(0.0561131875497 -0.0276719617802 -0.0163624617374) : omega : 	0.0654498469498 : d : 	(0.866312543941 -0.427218068558 -0.258819045103)
	I160 : dAve : 	(0.052021215649 -0.0347594650153 -0.0163624617374) : omega : 	0.0654498469498 : d : 	(0.803137972298 -0.536639636391 -0.258819045103)
	I161 : dAve : 	(0.0470391463256 -0.0412522241668 -0.0163624617374) : omega : 	0.0654498469498 : d : 	(0.726221487276 -0.636879151261 -0.258819045103)
	I162 : dAve : 	(0.0412522241668 -0.0470391463256 -0.0163624617374) : omega : 	0.0654498469498 : d : 	(0.636879151261 -0.726221487276 -0.258819045103)
	I163 : dAve : 	(0.0347594650153 -0.052021215649 -0.0163624617374) : omega : 	0.0654498469498 : d : 	(0.536639636391 -0.803137972298 -0.258819045103)
	I164 : dAve : 	(0.0276719617802 -0.0561131875497 -0.0163624617374) : omega : 	0.0654498469498 : d : 	(0.427218068558 -0.866312543941 -0.258819045103)
	I165 : dAve : 	(0.0201109836069 -0.0592450472539 -0.0163624617374) : omega : 	0.0654498469498 : d : 	(0.310486681125 -0.914664267771 -0.258819045103)
	I166 : dAve : 	(0.0122059009283 -0.0613632077737 -0.0163624617374) : omega : 	0.0654498469498 : d : 	(0.188442780494 -0.947365832386 -0.258819045103)
	I167 : dAve : 	(0.00409197190067 -0.0624314267954 -0.0163624617374) : omega : 	0.0654498469498 : d : 	(0.0631745716435 -0.963857704949 -0.258819045103)
	I168 : dAve : 	(-0.00409197190067 -0.0624314267954 -0.0163624617374) : omega : 	0.0654498469498 : d : 	(-0.0631745716435 -0.963857704949 -0.258819045103)
	I169 : dAve : 	(-0.0122059009283 -0.0613632077737 -0.0163624617374) : omega : 	0.0654498469498 : d : 	(-0.188442780494 -0.947365832386 -0.258819045103)
	I170 : dAve : 	(-0.0201109836069 -0.0592450472539 -0.0163624617374) : omega : 	0.0654498469498 : d : 	(-0.310486681125 -0.914664267771 -0.258819045103)
	I171 : dAve : 	(-0.0276719617802 -0.0561131875497 -0.0163624617374) : omega : 	0.0654498469498 : d : 	(-0.427218068558 -0.866312543941 -0.258819045103)
	I172 : dAve : 	(-0.0347594650153 -0.052021215649 -0.0163624617374) : omega : 	0.0654498469498 : d : 	(-0.536639636391 -0.803137972298 -0.258819045103)
	I173 : dAve : 	(-0.0412522241668 -0.0470391463256 -0.0163624617374) : omega : 	0.0654498469498 : d : 	(-0.636879151261 -0.726221487276 -0.258819045103)
	I174 : dAve : 	(-0.0470391463256 -0.0412522241668 -0.0163624617374) : omega : 	0.0654498469498 : d : 	(-0.726221487276 -0.636879151261 -0.258819045103)
	I175 : dAve : 	(-0.052021215649 -0.0347594650153 -0.0163624617374) : omega : 	0.0654498469498 : d : 	(-0.803137972298 -0.536639636391 -0.258819045103)
	I176 : dAve : 	(-0.0561131875497 -0.0276719617802 -0.0163624617374) : omega : 	0.0654498469498 : d : 	(-0.866312543941 -0.427218068558 -0.258819045103)
	I177 : dAve : 	(-0.0592450472539 -0.0201109836069 -0.0163624617374) : omega : 	0.0654498469498 : d : 	(-0.914664267771 -0.310486681125 -0.258819045103)
	I178 : dAve : 	(-0.0613632077737 -0.0122059009283 -0.0163624617374) : omega : 	0.0654498469498 : d : 	(-0.947365832386 -0.188442780494 -0.258819045103)
	I179 : dAve : 	(-0.0624314267954 -0.00409197190067 -0.0163624617374) : omega : 	0.0654498469498 : d : 	(-0.963857704949 -0.0631745716435 -0.258819045103)
	I180 : dAve : 	(-0.0624314267954 0.00409197190067 -0.0163624617374) : omega : 	0.0654498469498 : d : 	(-0.963857704949 0.0631745716435 -0.258819045103)
	I181 : dAve : 	(-0.0613632077737 0.0122059009283 -0.0163624617374) : omega : 	0.0654498469498 : d : 	(-0.947365832386 0.188442780494 -0.258819045103)
	I182 : dAve : 	(-0.0592450472539 0.0201109836069 -0.0163624617374) : omega : 	0.0654498469498 : d : 	(-0.914664267771 0.310486681125 -0.258819045103)
	I183 : dAve : 	(-0.0561131875497 0.0276719617802 -0.0163624617374) : omega : 	0.0654498469498 : d : 	(-0.866312543941 0.427218068558 -0.258819045103)
	I184 : dAve : 	(-0.052021215649 0.0347594650153 -0.0163624617374) : omega : 	0.0654498469498 : d : 	(-0.803137972298 0.536639636391 -0.258819045103)
	I185 : dAve : 	(-0.0470391463256 0.0412522241668 -0.0163624617374) : omega : 	0.0654498469498 : d : 	(-0.726221487276 0.636879151261 -0.258819045103)
	I186 : dAve : 	(-0.0412522241668 0.0470391463256 -0.0163624617374) : omega : 	0.0654498469498 : d : 	(-0.636879151261 0.726221487276 -0.258819045103)
	I187 : dAve : 	(-0.0347594650153 0.052021215649 -0.0163624617374) : omega : 	0.0654498469498 : d : 	(-0.536639636391 0.803137972298 -0.258819045103)
	I188 : dAve : 	(-0.0276719617802 0.0561131875497 -0.0163624617374) : omega : 	0.0654498469498 : d : 	(-0.427218068558 0.866312543941 -0.258819045103)
	I189 : dAve : 	(-0.0201109836069 0.0592450472539 -0.0163624617374) : omega : 	0.0654498469498 : d : 	(-0.310486681125 0.914664267771 -0.258819045103)
	I190 : dAve : 	(-0.0122059009283 0.0613632077737 -0.0163624617374) : omega : 	0.0654498469498 : d : 	(-0.188442780494 0.947365832386 -0.258819045103)
	I191 : dAve : 	(-0.00409197190067 0.0624314267954 -0.0163624617374) : omega : 	0.0654498469498 : d : 	(-0.0631745716435 0.963857704949 -0.258819045103)
	I192 : dAve : 	(0.00223973005487 0.034171677215 -0.0327249234749) : omega : 	0.0479126133149 : d : 	(0.0462469961895 0.70559281129 -0.707106781187)
	I193 : dAve : 	(0.00668086776241 0.0335869903436 -0.0327249234749) : omega : 	0.0479126133149 : d : 	(0.137949689641 0.693519922661 -0.707106781187)
	I194 : dAve : 	(0.0110076939702 0.0324276207555 -0.0327249234749) : omega : 	0.0479126133149 : d : 	(0.227292025657 0.669580715876 -0.707106781187)
	I195 : dAve : 	(0.0151461754823 0.0307134055855 -0.0327249234749) : omega : 	0.0479126133149 : d : 	(0.312745332096 0.634184797399 -0.707106781187)
	I196 : dAve : 	(0.0190255017326 0.0284736755306 -0.0327249234749) : omega : 	0.0479126133149 : d : 	(0.392847479194 0.58793780121 -0.707106781187)
	I197 : dAve : 	(0.0225792963734 0.025746752993 -0.0327249234749) : omega : 	0.0479126133149 : d : 	(0.466227897004 0.531631026234 -0.707106781187)
	I198 : dAve : 	(0.025746752993 0.0225792963734 -0.0327249234749) : omega : 	0.0479126133149 : d : 	(0.531631026234 0.466227897004 -0.707106781187)
	I199 : dAve : 	(0.0284736755306 0.0190255017326 -0.0327249234749) : omega : 	0.0479126133149 : d : 	(0.58793780121 0.392847479194 -0.707106781187)
	I200 : dAve : 	(0.0307134055855 0.0151461754823 -0.0327249234749) : omega : 	0.0479126133149 : d : 	(0.634184797399 0.312745332096 -0.707106781187)
	I201 : dAve : 	(0.0324276207555 0.0110076939702 -0.0327249234749) : omega : 	0.0479126133149 : d : 	(0.669580715876 0.227292025657 -0.707106781187)
	I202 : dAve : 	(0.0335869903436 0.00668086776241 -0.0327249234749) : omega : 	0.0479126133149 : d : 	(0.693519922661 0.137949689641 -0.707106781187)
	I203 : dAve : 	(0.034171677215 0.00223973005487 -0.0327249234749) : omega : 	0.0479126133149 : d : 	(0.70559281129 0.0462469961895 -0.707106781187)
	I204 : dAve : 	(0.034171677215 -0.00223973005487 -0.0327249234749) : omega : 	0.0479126133149 : d : 	(0.70559281129 -0.0462469961895 -0.707106781187)
	I205 : dAve : 	(0.0335869903436 -0.00668086776241 -0.0327249234749) : omega : 	0.0479126133149 : d : 	(0.693519922661 -0.137949689641 -0.707106781187)
	I206 : dAve : 	(0.0324276207555 -0.0110076939702 -0.0327249234749) : omega : 	0.0479126133149 : d : 	(0.669580715876 -0.227292025657 -0.707106781187)
	I207 : dAve : 	(0.0307134055855 -0.0151461754823 -0.0327249234749) : omega : 	0.0479126133149 : d : 	(0.634184797399 -0.312745332096 -0.707106781187)
	I208 : dAve : 	(0.0284736755306 -0.0190255017326 -0.0327249234749) : omega : 	0.0479126133149 : d : 	(0.58793780121 -0.392847479194 -0.707106781187)
	I209 : dAve : 	(0.025746752993 -0.0225792963734 -0.0327249234749) : omega : 	0.0479126133149 : d : 	(0.531631026234 -0.466227897004 -0.707106781187)
	I210 : dAve : 	(0.0225792963734 -0.025746752993 -0.0327249234749) : omega : 	0.0479126133149 : d : 	(0.466227897004 -0.531631026234 -0.707106781187)
	I211 : dAve : 	(0.0190255017326 -0.0284736755306 -0.0327249234749) : omega : 	0.0479126133149 : d : 	(0.392847479194 -0.58793780121 -0.707106781187)
	I212 : dAve : 	(0.0151461754823 -0.0307134055855 -0.0327249234749) : omega : 	0.0479126133149 : d : 	(0.312745332096 -0.634184797399 -0.707106781187)
	I213 : dAve : 	(0.0110076939702 -0.0324276207555 -0.0327249234749) : omega : 	0.0479126133149 : d : 	(0.227292025657 -0.669580715876 -0.707106781187)
	I214 : dAve : 	(0.00668086776241 -0.0335869903436 -0.0327249234749) : omega : 	0.0479126133149 : d : 	(0.137949689641 -0.693519922661 -0.707106781187)
	I215 : dAve : 	(0.00223973005487 -0.034171677215 -0.0327249234749) : omega : 	0.0479126133149 : d : 	(0.0462469961895 -0.70559281129 -0.707106781187)
	I216 : dAve : 	(-0.00223973005487 -0.034171677215 -0.0327249234749) : omega : 	0.0479126133149 : d : 	(-0.0462469961895 -0.70559281129 -0.707106781187)
	I217 : dAve : 	(-0.00668086776241 -0.0335869903436 -0.0327249234749) : omega : 	0.0479126133149 : d : 	(-0.137949689641 -0.693519922661 -0.707106781187)
	I218 : dAve : 	(-0.0110076939702 -0.0324276207555 -0.0327249234749) : omega : 	0.0479126133149 : d : 	(-0.227292025657 -0.669580715876 -0.707106781187)
	I219 : dAve : 	(-0.0151461754823 -0.0307134055855 -0.0327249234749) : omega : 	0.0479126133149 : d : 	(-0.312745332096 -0.634184797399 -0.707106781187)
	I220 : dAve : 	(-0.0190255017326 -0.0284736755306 -0.0327249234749) : omega : 	0.0479126133149 : d : 	(-0.392847479194 -0.58793780121 -0.707106781187)
	I221 : dAve : 	(-0.0225792963734 -0.025746752993 -0.0327249234749) : omega : 	0.0479126133149 : d : 	(-0.466227897004 -0.531631026234 -0.707106781187)
	I222 : dAve : 	(-0.025746752993 -0.0225792963734 -0.0327249234749) : omega : 	0.0479126133149 : d : 	(-0.531631026234 -0.466227897004 -0.707106781187)
	I223 : dAve : 	(-0.0284736755306 -0.0190255017326 -0.0327249234749) : omega : 	0.0479126133149 : d : 	(-0.58793780121 -0.392847479194 -0.707106781187)
	I224 : dAve : 	(-0.0307134055855 -0.0151461754823 -0.0327249234749) : omega : 	0.0479126133149 : d : 	(-0.634184797399 -0.312745332096 -0.707106781187)
	I225 : dAve : 	(-0.0324276207555 -0.0110076939702 -0.0327249234749) : omega : 	0.0479126133149 : d : 	(-0.669580715876 -0.227292025657 -0.707106781187)
	I226 : dAve : 	(-0.0335869903436 -0.00668086776241 -0.0327249234749) : omega : 	0.0479126133149 : d : 	(-0.693519922661 -0.137949689641 -0.707106781187)
	I227 : dAve : 	(-0.034171677215 -0.00223973005487 -0.0327249234749) : omega : 	0.0479126133149 : d : 	(-0.70559281129 -0.0462469961895 -0.707106781187)
	I228 : dAve : 	(-0.034171677215 0.00223973005487 -0.0327249234749) : omega : 	0.0479126133149 : d : 	(-0.70559281129 0.0462469961895 -0.707106781187)
	I229 : dAve : 	(-0.0335869903436 0.00668086776241 -0.0327249234749) : omega : 	0.0479126133149 : d : 	(-0.693519922661 0.137949689641 -0.707106781187)
	I230 : dAve : 	(-0.0324276207555 0.0110076939702 -0.0327249234749) : omega : 	0.0479126133149 : d : 	(-0.669580715876 0.227292025657 -0.707106781187)
	I231 : dAve : 	(-0.0307134055855 0.0151461754823 -0.0327249234749) : omega : 	0.0479126133149 : d : 	(-0.634184797399 0.312745332096 -0.707106781187)
	I232 : dAve : 	(-0.0284736755306 0.0190255017326 -0.0327249234749) : omega : 	0.0479126133149 : d : 	(-0.58793780121 0.392847479194 -0.707106781187)
	I233 : dAve : 	(-0.025746752993 0.0225792963734 -0.0327249234749) : omega : 	0.0479126133149 : d : 	(-0.531631026234 0.466227897004 -0.707106781187)
	I234 : dAve : 	(-0.0225792963734 0.025746752993 -0.0327249234749) : omega : 	0.0479126133149 : d : 	(-0.466227897004 0.531631026234 -0.707106781187)
	I235 : dAve : 	(-0.0190255017326 0.0284736755306 -0.0327249234749) : omega : 	0.0479126133149 : d : 	(-0.392847479194 0.58793780121 -0.707106781187)
	I236 : dAve : 	(-0.0151461754823 0.0307134055855 -0.0327249234749) : omega : 	0.0479126133149 : d : 	(-0.312745332096 0.634184797399 -0.707106781187)
	I237 : dAve : 	(-0.0110076939702 0.0324276207555 -0.0327249234749) : omega : 	0.0479126133149 : d : 	(-0.227292025657 0.669580715876 -0.707106781187)
	I238 : dAve : 	(-0.00668086776241 0.0335869903436 -0.0327249234749) : omega : 	0.0479126133149 : d : 	(-0.137949689641 0.693519922661 -0.707106781187)
	I239 : dAve : 	(-0.00223973005487 0.034171677215 -0.0327249234749) : omega : 	0.0479126133149 : d : 	(-0.0462469961895 0.70559281129 -0.707106781187)
	I240 : dAve : 	(0.000387488209079 0.00591192763451 -0.0163624617374) : omega : 	0.0175372336349 : d : 	(0.0169275754541 0.25826489366 -0.965925826289)
	I241 : dAve : 	(0.00115583459655 0.00581077291359 -0.0163624617374) : omega : 	0.0175372336349 : d : 	(0.050493090853 0.253845909725 -0.965925826289)
	I242 : dAve : 	(0.00190440433361 0.00561019425706 -0.0163624617374) : omega : 	0.0175372336349 : d : 	(0.083194655468 0.245083551895 -0.965925826289)
	I243 : dAve : 	(0.00262038918453 0.00531362362136 -0.0163624617374) : omega : 	0.0175372336349 : d : 	(0.114472736462 0.232127746542 -0.965925826289)
	I244 : dAve : 	(0.00329153844998 0.00492613541228 -0.0163624617374) : omega : 	0.0175372336349 : d : 	(0.143792157198 0.215200171088 -0.965925826289)
	I245 : dAve : 	(0.00390636857998 0.00445435966052 -0.0163624617374) : omega : 	0.0175372336349 : d : 	(0.170651254257 0.194590461042 -0.965925826289)
	I246 : dAve : 	(0.00445435966052 0.00390636857998 -0.0163624617374) : omega : 	0.0175372336349 : d : 	(0.194590461042 0.170651254257 -0.965925826289)
	I247 : dAve : 	(0.00492613541228 0.00329153844998 -0.0163624617374) : omega : 	0.0175372336349 : d : 	(0.215200171088 0.143792157198 -0.965925826289)
	I248 : dAve : 	(0.00531362362136 0.00262038918453 -0.0163624617374) : omega : 	0.0175372336349 : d : 	(0.232127746542 0.114472736462 -0.965925826289)
	I249 : dAve : 	(0.00561019425706 0.00190440433361 -0.0163624617374) : omega : 	0.0175372336349 : d : 	(0.245083551895 0.083194655468 -0.965925826289)
	I250 : dAve : 	(0.00581077291359 0.00115583459655 -0.0163624617374) : omega : 	0.0175372336349 : d : 	(0.253845909725 0.050493090853 -0.965925826289)
	I251 : dAve : 	(0.00591192763451 0.000387488209079 -0.0163624617374) : omega : 	0.0175372336349 : d : 	(0.25826489366 0.0169275754541 -0.965925826289)
	I252 : dAve : 	(0.00591192763451 -0.000387488209079 -0.0163624617374) : omega : 	0.0175372336349 : d : 	(0.25826489366 -0.0169275754541 -0.965925826289)
	I253 : dAve : 	(0.00581077291359 -0.00115583459655 -0.0163624617374) : omega : 	0.0175372336349 : d : 	(0.253845909725 -0.050493090853 -0.965925826289)
	I254 : dAve : 	(0.00561019425706 -0.00190440433361 -0.0163624617374) : omega : 	0.0175372336349 : d : 	(0.245083551895 -0.083194655468 -0.965925826289)
	I255 : dAve : 	(0.00531362362136 -0.00262038918453 -0.0163624617374) : omega : 	0.0175372336349 : d : 	(0.232127746542 -0.114472736462 -0.965925826289)
	I256 : dAve : 	(0.00492613541228 -0.00329153844998 -0.0163624617374) : omega : 	0.0175372336349 : d : 	(0.215200171088 -0.143792157198 -0.965925826289)
	I257 : dAve : 	(0.00445435966052 -0.00390636857998 -0.0163624617374) : omega : 	0.0175372336349 : d : 	(0.194590461042 -0.170651254257 -0.965925826289)
	I258 : dAve : 	(0.00390636857998 -0.00445435966052 -0.0163624617374) : omega : 	0.0175372336349 : d : 	(0.170651254257 -0.194590461042 -0.965925826289)
	I259 : dAve : 	(0.00329153844998 -0.00492613541228 -0.0163624617374) : omega : 	0.0175372336349 : d : 	(0.143792157198 -0.215200171088 -0.965925826289)
	I260 : dAve : 	(0.00262038918453 -0.00531362362136 -0.0163624617374) : omega : 	0.0175372336349 : d : 	(0.114472736462 -0.232127746542 -0.965925826289)
	I261 : dAve : 	(0.00190440433361 -0.00561019425706 -0.0163624617374) : omega : 	0.0175372336349 : d : 	(0.083194655468 -0.245083551895 -0.965925826289)
	I262 : dAve : 	(0.00115583459655 -0.00581077291359 -0.0163624617374) : omega : 	0.0175372336349 : d : 	(0.050493090853 -0.253845909725 -0.965925826289)
	I263 : dAve : 	(0.000387488209079 -0.00591192763451 -0.0163624617374) : omega : 	0.0175372336349 : d : 	(0.0169275754541 -0.25826489366 -0.965925826289)
	I264 : dAve : 	(-0.000387488209079 -0.00591192763451 -0.0163624617374) : omega : 	0.0175372336349 : d : 	(-0.0169275754541 -0.25826489366 -0.965925826289)
	I265 : dAve : 	(-0.00115583459655 -0.00581077291359 -0.0163624617374) : omega : 	0.0175372336349 : d : 	(-0.050493090853 -0.253845909725 -0.965925826289)
	I266 : dAve : 	(-0.00190440433361 -0.00561019425706 -0.0163624617374) : omega : 	0.0175372336349 : d : 	(-0.083194655468 -0.245083551895 -0.965925826289)
	I267 : dAve : 	(-0.00262038918453 -0.00531362362136 -0.0163624617374) : omega : 	0.0175372336349 : d : 	(-0.114472736462 -0.232127746542 -0.965925826289)
	I268 : dAve : 	(-0.00329153844998 -0.00492613541228 -0.0163624617374) : omega : 	0.0175372336349 : d : 	(-0.143792157198 -0.215200171088 -0.965925826289)
	I269 : dAve : 	(-0.00390636857998 -0.00445435966052 -0.0163624617374) : omega : 	0.0175372336349 : d : 	(-0.170651254257 -0.194590461042 -0.965925826289)
	I270 : dAve : 	(-0.00445435966052 -0.00390636857998 -0.0163624617374) : omega : 	0.0175372336349 : d : 	(-0.194590461042 -0.170651254257 -0.965925826289)
	I271 : dAve : 	(-0.00492613541228 -0.00329153844998 -0.0163624617374) : omega : 	0.0175372336349 : d : 	(-0.215200171088 -0.143792157198 -0.965925826289)
	I272 : dAve : 	(-0.00531362362136 -0.00262038918453 -0.0163624617374) : omega : 	0.0175372336349 : d : 	(-0.232127746542 -0.114472736462 -0.965925826289)
	I273 : dAve : 	(-0.00561019425706 -0.00190440433361 -0.0163624617374) : omega : 	0.0175372336349 : d : 	(-0.245083551895 -0.083194655468 -0.965925826289)
	I274 : dAve : 	(-0.00581077291359 -0.00115583459655 -0.0163624617374) : omega : 	0.0175372336349 : d : 	(-0.253845909725 -0.050493090853 -0.965925826289)
	I275 : dAve : 	(-0.00591192763451 -0.000387488209079 -0.0163624617374) : omega : 	0.0175372336349 : d : 	(-0.25826489366 -0.0169275754541 -0.965925826289)
	I276 : dAve : 	(-0.00591192763451 0.000387488209079 -0.0163624617374) : omega : 	0.0175372336349 : d : 	(-0.25826489366 0.0169275754541 -0.965925826289)
	I277 : dAve : 	(-0.00581077291359 0.00115583459655 -0.0163624617374) : omega : 	0.0175372336349 : d : 	(-0.253845909725 0.050493090853 -0.965925826289)
	I278 : dAve : 	(-0.00561019425706 0.00190440433361 -0.0163624617374) : omega : 	0.0175372336349 : d : 	(-0.245083551895 0.083194655468 -0.965925826289)
	I279 : dAve : 	(-0.00531362362136 0.00262038918453 -0.0163624617374) : omega : 	0.0175372336349 : d : 	(-0.232127746542 0.114472736462 -0.965925826289)
	I280 : dAve : 	(-0.00492613541228 0.00329153844998 -0.0163624617374) : omega : 	0.0175372336349 : d : 	(-0.215200171088 0.143792157198 -0.965925826289)
	I281 : dAve : 	(-0.00445435966052 0.00390636857998 -0.0163624617374) : omega : 	0.0175372336349 : d : 	(-0.194590461042 0.170651254257 -0.965925826289)
	I282 : dAve : 	(-0.00390636857998 0.00445435966052 -0.0163624617374) : omega : 	0.0175372336349 : d : 	(-0.170651254257 0.194590461042 -0.965925826289)
	I283 : dAve : 	(-0.00329153844998 0.00492613541228 -0.0163624617374) : omega : 	0.0175372336349 : d : 	(-0.143792157198 0.215200171088 -0.965925826289)
	I284 : dAve : 	(-0.00262038918453 0.00531362362136 -0.0163624617374) : omega : 	0.0175372336349 : d : 	(-0.114472736462 0.232127746542 -0.965925826289)
	I285 : dAve : 	(-0.00190440433361 0.00561019425706 -0.0163624617374) : omega : 	0.0175372336349 : d : 	(-0.083194655468 0.245083551895 -0.965925826289)
	I286 : dAve : 	(-0.00115583459655 0.00581077291359 -0.0163624617374) : omega : 	0.0175372336349 : d : 	(-0.050493090853 0.253845909725 -0.965925826289)
	I287 : dAve : 	(-0.000387488209079 0.00591192763451 -0.0163624617374) : omega : 	0.0175372336349 : d : 	(-0.0169275754541 0.25826489366 -0.965925826289)
Total omega : 12.5663706144

Courant Number mean: 0 max: 0

Starting time loop

Sampled set:
    data -> csv

Sampled set:
    data -> csv

Sampled surface:
    yNormal -> ensight
        sampledCuttingPlane: yNormal : plane:(0 1 0) (0 0 0) offsets:(0)

Sampled surface:
    zNormal -> ensight
        sampledCuttingPlane: zNormal : plane:(0 0 1) (0 0 0) offsets:(0)

Sampled surface:
    patchAll -> ensight
        sampledPatch: patchAll : patches:(".*WW.*")

deltaT = 1
Time = 1

PIMPLE: iteration 1
Radiation solver iter: 0
DILUPBiCGStab:  Solving for ILambda_0_0, Initial residual = 1, Final residual = 1.15250893714e-74, No Iterations 3
DILUPBiCGStab:  Solving for ILambda_1_0, Initial residual = 1, Final residual = 1.70954240717e-65, No Iterations 3
DILUPBiCGStab:  Solving for ILambda_2_0, Initial residual = 1, Final residual = 3.0946695715e-73, No Iterations 3
DILUPBiCGStab:  Solving for ILambda_3_0, Initial residual = 1, Final residual = 5.45908873565e-70, No Iterations 3
DILUPBiCGStab:  Solving for ILambda_4_0, Initial residual = 1, Final residual = 5.39135650778e-71, No Iterations 3
DILUPBiCGStab:  Solving for ILambda_5_0, Initial residual = 1, Final residual = 2.06797616699e-72, No Iterations 3
DILUPBiCGStab:  Solving for ILambda_6_0, Initial residual = 1, Final residual = 9.13167598175e-71, No Iterations 3
DILUPBiCGStab:  Solving for ILambda_7_0, Initial residual = 1, Final residual = 1.54327649485e-70, No Iterations 3
DILUPBiCGStab:  Solving for ILambda_8_0, Initial residual = 1, Final residual = 1.79141306115e-69, No Iterations 3
DILUPBiCGStab:  Solving for ILambda_9_0, Initial residual = 1, Final residual = 1.74001712569e-71, No Iterations 3
DILUPBiCGStab:  Solving for ILambda_10_0, Initial residual = 1, Final residual = 7.15297367682e-61, No Iterations 3
DILUPBiCGStab:  Solving for ILambda_11_0, Initial residual = 1, Final residual = 9.56403118158e-75, No Iterations 3
DILUPBiCGStab:  Solving for ILambda_12_0, Initial residual = 1, Final residual = 6.51087791581e-61, No Iterations 69
DILUPBiCGStab:  Solving for ILambda_13_0, Initial residual = 1, Final residual = 2.18107967807e-61, No Iterations 116
DILUPBiCGStab:  Solving for ILambda_14_0, Initial residual = 1, Final residual = 3.66189699065e-61, No Iterations 141
DILUPBiCGStab:  Solving for ILambda_15_0, Initial residual = 1, Final residual = 8.54950550774e-61, No Iterations 159
DILUPBiCGStab:  Solving for ILambda_16_0, Initial residual = 1, Final residual = 5.02850214653e-61, No Iterations 168
DILUPBiCGStab:  Solving for ILambda_17_0, Initial residual = 1, Final residual = 6.18566705377e-61, No Iterations 184
DILUPBiCGStab:  Solving for ILambda_18_0, Initial residual = 1, Final residual = 7.474088179e-61, No Iterations 181
DILUPBiCGStab:  Solving for ILambda_19_0, Initial residual = 1, Final residual = 8.78930933017e-61, No Iterations 172
DILUPBiCGStab:  Solving for ILambda_20_0, Initial residual = 1, Final residual = 3.90318951231e-61, No Iterations 159
DILUPBiCGStab:  Solving for ILambda_21_0, Initial residual = 1, Final residual = 6.66868541229e-61, No Iterations 146
DILUPBiCGStab:  Solving for ILambda_22_0, Initial residual = 1, Final residual = 7.44797179791e-61, No Iterations 115
DILUPBiCGStab:  Solving for ILambda_23_0, Initial residual = 1, Final residual = 9.15640469277e-61, No Iterations 68
DILUPBiCGStab:  Solving for ILambda_24_0, Initial residual = 1, Final residual = 6.39659635605e-61, No Iterations 41
DILUPBiCGStab:  Solving for ILambda_25_0, Initial residual = 1, Final residual = 5.32764673652e-61, No Iterations 43
DILUPBiCGStab:  Solving for ILambda_26_0, Initial residual = 1, Final residual = 8.10666083095e-62, No Iterations 43
DILUPBiCGStab:  Solving for ILambda_27_0, Initial residual = 1, Final residual = 3.22076135738e-61, No Iterations 44
DILUPBiCGStab:  Solving for ILambda_28_0, Initial residual = 1, Final residual = 4.28836826228e-61, No Iterations 44
DILUPBiCGStab:  Solving for ILambda_29_0, Initial residual = 1, Final residual = 1.51093303284e-61, No Iterations 44
DILUPBiCGStab:  Solving for ILambda_30_0, Initial residual = 1, Final residual = 8.74500242159e-62, No Iterations 45
DILUPBiCGStab:  Solving for ILambda_31_0, Initial residual = 1, Final residual = 9.17524593687e-61, No Iterations 45
DILUPBiCGStab:  Solving for ILambda_32_0, Initial residual = 1, Final residual = 1.54902379356e-61, No Iterations 44
DILUPBiCGStab:  Solving for ILambda_33_0, Initial residual = 1, Final residual = 1.30403237769e-61, No Iterations 44
DILUPBiCGStab:  Solving for ILambda_34_0, Initial residual = 1, Final residual = 5.74414938863e-61, No Iterations 42
DILUPBiCGStab:  Solving for ILambda_35_0, Initial residual = 1, Final residual = 5.0592485653e-61, No Iterations 42
DILUPBiCGStab:  Solving for ILambda_36_0, Initial residual = 1, Final residual = 7.63337676358e-61, No Iterations 69
DILUPBiCGStab:  Solving for ILambda_37_0, Initial residual = 1, Final residual = 9.81656781733e-61, No Iterations 116
DILUPBiCGStab:  Solving for ILambda_38_0, Initial residual = 1, Final residual = 3.7603834975e-61, No Iterations 147
DILUPBiCGStab:  Solving for ILambda_39_0, Initial residual = 1, Final residual = 2.08782764297e-61, No Iterations 160
DILUPBiCGStab:  Solving for ILambda_40_0, Initial residual = 1, Final residual = 2.85788755105e-61, No Iterations 173
DILUPBiCGStab:  Solving for ILambda_41_0, Initial residual = 1, Final residual = 8.52172582812e-61, No Iterations 183
DILUPBiCGStab:  Solving for ILambda_42_0, Initial residual = 1, Final residual = 9.29462388963e-61, No Iterations 180
DILUPBiCGStab:  Solving for ILambda_43_0, Initial residual = 1, Final residual = 3.79200568713e-61, No Iterations 167
DILUPBiCGStab:  Solving for ILambda_44_0, Initial residual = 1, Final residual = 2.52460166027e-61, No Iterations 158
DILUPBiCGStab:  Solving for ILambda_45_0, Initial residual = 1, Final residual = 4.51488269121e-61, No Iterations 141
DILUPBiCGStab:  Solving for ILambda_46_0, Initial residual = 1, Final residual = 9.60235375419e-61, No Iterations 113
DILUPBiCGStab:  Solving for ILambda_47_0, Initial residual = 1, Final residual = 4.61976280198e-61, No Iterations 70
DILUPBiCGStab:  Solving for ILambda_48_0, Initial residual = 1, Final residual = 8.34755039703e-70, No Iterations 3
DILUPBiCGStab:  Solving for ILambda_49_0, Initial residual = 1, Final residual = 8.08072233626e-70, No Iterations 3
DILUPBiCGStab:  Solving for ILambda_50_0, Initial residual = 1, Final residual = 2.46520527901e-68, No Iterations 3
DILUPBiCGStab:  Solving for ILambda_51_0, Initial residual = 1, Final residual = 2.26037748999e-68, No Iterations 3
DILUPBiCGStab:  Solving for ILambda_52_0, Initial residual = 1, Final residual = 1.65691088085e-68, No Iterations 3
DILUPBiCGStab:  Solving for ILambda_53_0, Initial residual = 1, Final residual = 6.12172999292e-69, No Iterations 3
DILUPBiCGStab:  Solving for ILambda_54_0, Initial residual = 1, Final residual = 6.32566170542e-69, No Iterations 3
DILUPBiCGStab:  Solving for ILambda_55_0, Initial residual = 1, Final residual = 6.85791555368e-69, No Iterations 3
DILUPBiCGStab:  Solving for ILambda_56_0, Initial residual = 1, Final residual = 8.67867954978e-69, No Iterations 3
DILUPBiCGStab:  Solving for ILambda_57_0, Initial residual = 1, Final residual = 1.65059112652e-69, No Iterations 3
DILUPBiCGStab:  Solving for ILambda_58_0, Initial residual = 1, Final residual = 3.23555208098e-70, No Iterations 3
DILUPBiCGStab:  Solving for ILambda_59_0, Initial residual = 1, Final residual = 2.43453405065e-71, No Iterations 3
DILUPBiCGStab:  Solving for ILambda_60_0, Initial residual = 1, Final residual = 4.43444315764e-62, No Iterations 71
DILUPBiCGStab:  Solving for ILambda_61_0, Initial residual = 1, Final residual = 4.8274094045e-62, No Iterations 117
DILUPBiCGStab:  Solving for ILambda_62_0, Initial residual = 1, Final residual = 5.24537551555e-61, No Iterations 146
DILUPBiCGStab:  Solving for ILambda_63_0, Initial residual = 1, Final residual = 5.24336989616e-61, No Iterations 165
DILUPBiCGStab:  Solving for ILambda_64_0, Initial residual = 1, Final residual = 6.49068312516e-61, No Iterations 176
DILUPBiCGStab:  Solving for ILambda_65_0, Initial residual = 1, Final residual = 4.00321736737e-61, No Iterations 189
DILUPBiCGStab:  Solving for ILambda_66_0, Initial residual = 1, Final residual = 4.60341836594e-61, No Iterations 191
DILUPBiCGStab:  Solving for ILambda_67_0, Initial residual = 1, Final residual = 4.25321580113e-61, No Iterations 180
DILUPBiCGStab:  Solving for ILambda_68_0, Initial residual = 1, Final residual = 7.67986122615e-61, No Iterations 164
DILUPBiCGStab:  Solving for ILambda_69_0, Initial residual = 1, Final residual = 2.08602425169e-61, No Iterations 145
DILUPBiCGStab:  Solving for ILambda_70_0, Initial residual = 1, Final residual = 6.69973174753e-61, No Iterations 115
DILUPBiCGStab:  Solving for ILambda_71_0, Initial residual = 1, Final residual = 8.15552465618e-61, No Iterations 70
DILUPBiCGStab:  Solving for ILambda_72_0, Initial residual = 1, Final residual = 7.38936008255e-61, No Iterations 53
DILUPBiCGStab:  Solving for ILambda_73_0, Initial residual = 1, Final residual = 8.44253959629e-63, No Iterations 57
DILUPBiCGStab:  Solving for ILambda_74_0, Initial residual = 1, Final residual = 4.83427443239e-61, No Iterations 58
DILUPBiCGStab:  Solving for ILambda_75_0, Initial residual = 1, Final residual = 5.43995106951e-62, No Iterations 59
DILUPBiCGStab:  Solving for ILambda_76_0, Initial residual = 1, Final residual = 2.79948019082e-61, No Iterations 59
DILUPBiCGStab:  Solving for ILambda_77_0, Initial residual = 1, Final residual = 8.09361216101e-62, No Iterations 61
DILUPBiCGStab:  Solving for ILambda_78_0, Initial residual = 1, Final residual = 1.17704811381e-61, No Iterations 62
DILUPBiCGStab:  Solving for ILambda_79_0, Initial residual = 1, Final residual = 1.80046361973e-61, No Iterations 59
DILUPBiCGStab:  Solving for ILambda_80_0, Initial residual = 1, Final residual = 6.36248833973e-61, No Iterations 59
DILUPBiCGStab:  Solving for ILambda_81_0, Initial residual = 1, Final residual = 8.16224323729e-61, No Iterations 58
DILUPBiCGStab:  Solving for ILambda_82_0, Initial residual = 1, Final residual = 1.12073374664e-61, No Iterations 55
DILUPBiCGStab:  Solving for ILambda_83_0, Initial residual = 1, Final residual = 1.05369625087e-61, No Iterations 52
DILUPBiCGStab:  Solving for ILambda_84_0, Initial residual = 1, Final residual = 8.67465799544e-61, No Iterations 70
DILUPBiCGStab:  Solving for ILambda_85_0, Initial residual = 1, Final residual = 2.08676292859e-61, No Iterations 115
DILUPBiCGStab:  Solving for ILambda_86_0, Initial residual = 1, Final residual = 4.99065729876e-61, No Iterations 145
DILUPBiCGStab:  Solving for ILambda_87_0, Initial residual = 1, Final residual = 5.25829029665e-61, No Iterations 164
DILUPBiCGStab:  Solving for ILambda_88_0, Initial residual = 1, Final residual = 6.34587640205e-61, No Iterations 179
DILUPBiCGStab:  Solving for ILambda_89_0, Initial residual = 1, Final residual = 6.96219575656e-61, No Iterations 189
DILUPBiCGStab:  Solving for ILambda_90_0, Initial residual = 1, Final residual = 8.72416389279e-61, No Iterations 187
DILUPBiCGStab:  Solving for ILambda_91_0, Initial residual = 1, Final residual = 4.1600425193e-61, No Iterations 177
DILUPBiCGStab:  Solving for ILambda_92_0, Initial residual = 1, Final residual = 1.30285401029e-61, No Iterations 167
DILUPBiCGStab:  Solving for ILambda_93_0, Initial residual = 1, Final residual = 4.82915840701e-61, No Iterations 149
DILUPBiCGStab:  Solving for ILambda_94_0, Initial residual = 1, Final residual = 3.53542473044e-61, No Iterations 116
DILUPBiCGStab:  Solving for ILambda_95_0, Initial residual = 1, Final residual = 5.62525455667e-61, No Iterations 69
DILUPBiCGStab:  Solving for ILambda_96_0, Initial residual = 1, Final residual = 4.37401943284e-74, No Iterations 3
DILUPBiCGStab:  Solving for ILambda_97_0, Initial residual = 1, Final residual = 7.25735765371e-68, No Iterations 3
DILUPBiCGStab:  Solving for ILambda_98_0, Initial residual = 1, Final residual = 7.48057667293e-68, No Iterations 3
DILUPBiCGStab:  Solving for ILambda_99_0, Initial residual = 1, Final residual = 5.92685514315e-67, No Iterations 3
DILUPBiCGStab:  Solving for ILambda_100_0, Initial residual = 1, Final residual = 1.2082626376e-67, No Iterations 3
DILUPBiCGStab:  Solving for ILambda_101_0, Initial residual = 1, Final residual = 6.75965421242e-68, No Iterations 3
DILUPBiCGStab:  Solving for ILambda_102_0, Initial residual = 1, Final residual = 3.59994088801e-68, No Iterations 3
DILUPBiCGStab:  Solving for ILambda_103_0, Initial residual = 1, Final residual = 6.47814358207e-68, No Iterations 3
DILUPBiCGStab:  Solving for ILambda_104_0, Initial residual = 1, Final residual = 8.07007628264e-68, No Iterations 3
DILUPBiCGStab:  Solving for ILambda_105_0, Initial residual = 1, Final residual = 4.15355420544e-69, No Iterations 3
DILUPBiCGStab:  Solving for ILambda_106_0, Initial residual = 1, Final residual = 1.80904773894e-69, No Iterations 3
DILUPBiCGStab:  Solving for ILambda_107_0, Initial residual = 1, Final residual = 1.54576098806e-70, No Iterations 3
DILUPBiCGStab:  Solving for ILambda_108_0, Initial residual = 1, Final residual = 5.53359517633e-61, No Iterations 72
DILUPBiCGStab:  Solving for ILambda_109_0, Initial residual = 1, Final residual = 2.57047510198e-61, No Iterations 115
DILUPBiCGStab:  Solving for ILambda_110_0, Initial residual = 1, Final residual = 7.70613422127e-61, No Iterations 144
DILUPBiCGStab:  Solving for ILambda_111_0, Initial residual = 1, Final residual = 6.75124031684e-61, No Iterations 164
DILUPBiCGStab:  Solving for ILambda_112_0, Initial residual = 1, Final residual = 3.08125132763e-61, No Iterations 181
DILUPBiCGStab:  Solving for ILambda_113_0, Initial residual = 1, Final residual = 2.28040424679e-61, No Iterations 189
DILUPBiCGStab:  Solving for ILambda_114_0, Initial residual = 1, Final residual = 1.92429694226e-61, No Iterations 193
DILUPBiCGStab:  Solving for ILambda_115_0, Initial residual = 1, Final residual = 4.19747627923e-61, No Iterations 179
DILUPBiCGStab:  Solving for ILambda_116_0, Initial residual = 1, Final residual = 6.923983144e-61, No Iterations 164
DILUPBiCGStab:  Solving for ILambda_117_0, Initial residual = 1, Final residual = 4.72157667122e-61, No Iterations 144
DILUPBiCGStab:  Solving for ILambda_118_0, Initial residual = 1, Final residual = 4.84748607523e-61, No Iterations 118
DILUPBiCGStab:  Solving for ILambda_119_0, Initial residual = 1, Final residual = 4.99162658916e-61, No Iterations 73
DILUPBiCGStab:  Solving for ILambda_120_0, Initial residual = 1, Final residual = 3.82181526405e-61, No Iterations 63
DILUPBiCGStab:  Solving for ILambda_121_0, Initial residual = 1, Final residual = 5.67182375685e-62, No Iterations 69
DILUPBiCGStab:  Solving for ILambda_122_0, Initial residual = 1, Final residual = 1.9726612752e-61, No Iterations 71
DILUPBiCGStab:  Solving for ILambda_123_0, Initial residual = 1, Final residual = 9.33847682112e-61, No Iterations 72
DILUPBiCGStab:  Solving for ILambda_124_0, Initial residual = 1, Final residual = 4.87519501106e-61, No Iterations 77
DILUPBiCGStab:  Solving for ILambda_125_0, Initial residual = 1, Final residual = 5.99093164516e-61, No Iterations 78
DILUPBiCGStab:  Solving for ILambda_126_0, Initial residual = 1, Final residual = 1.57688033498e-61, No Iterations 74
DILUPBiCGStab:  Solving for ILambda_127_0, Initial residual = 1, Final residual = 7.22757660841e-62, No Iterations 74
DILUPBiCGStab:  Solving for ILambda_128_0, Initial residual = 1, Final residual = 1.84141226338e-61, No Iterations 74
DILUPBiCGStab:  Solving for ILambda_129_0, Initial residual = 1, Final residual = 1.18555955246e-61, No Iterations 71
DILUPBiCGStab:  Solving for ILambda_130_0, Initial residual = 1, Final residual = 2.1604722086e-61, No Iterations 69
DILUPBiCGStab:  Solving for ILambda_131_0, Initial residual = 1, Final residual = 5.59359135421e-61, No Iterations 64
DILUPBiCGStab:  Solving for ILambda_132_0, Initial residual = 1, Final residual = 2.65002496736e-61, No Iterations 74
DILUPBiCGStab:  Solving for ILambda_133_0, Initial residual = 1, Final residual = 5.56040271767e-61, No Iterations 119
DILUPBiCGStab:  Solving for ILambda_134_0, Initial residual = 1, Final residual = 9.20665173994e-61, No Iterations 143
DILUPBiCGStab:  Solving for ILambda_135_0, Initial residual = 1, Final residual = 8.54759666144e-61, No Iterations 162
DILUPBiCGStab:  Solving for ILambda_136_0, Initial residual = 1, Final residual = 6.19020048023e-61, No Iterations 180
DILUPBiCGStab:  Solving for ILambda_137_0, Initial residual = 1, Final residual = 7.49562900377e-61, No Iterations 192
DILUPBiCGStab:  Solving for ILambda_138_0, Initial residual = 1, Final residual = 4.09747011558e-61, No Iterations 189
DILUPBiCGStab:  Solving for ILambda_139_0, Initial residual = 1, Final residual = 5.66635419251e-61, No Iterations 179
DILUPBiCGStab:  Solving for ILambda_140_0, Initial residual = 1, Final residual = 5.53387852939e-61, No Iterations 164
DILUPBiCGStab:  Solving for ILambda_141_0, Initial residual = 1, Final residual = 7.81779989845e-61, No Iterations 147
DILUPBiCGStab:  Solving for ILambda_142_0, Initial residual = 1, Final residual = 3.18845392978e-62, No Iterations 116
DILUPBiCGStab:  Solving for ILambda_143_0, Initial residual = 1, Final residual = 8.45263536902e-61, No Iterations 71
DILUPBiCGStab:  Solving for ILambda_144_0, Initial residual = 1, Final residual = 3.93082367276e-61, No Iterations 66
DILUPBiCGStab:  Solving for ILambda_145_0, Initial residual = 1, Final residual = 2.60100266927e-61, No Iterations 69
DILUPBiCGStab:  Solving for ILambda_146_0, Initial residual = 1, Final residual = 4.47959960731e-61, No Iterations 69
DILUPBiCGStab:  Solving for ILambda_147_0, Initial residual = 1, Final residual = 5.85166525736e-61, No Iterations 73
DILUPBiCGStab:  Solving for ILambda_148_0, Initial residual = 1, Final residual = 5.35077971834e-61, No Iterations 71
DILUPBiCGStab:  Solving for ILambda_149_0, Initial residual = 1, Final residual = 1.71214304683e-61, No Iterations 72
DILUPBiCGStab:  Solving for ILambda_150_0, Initial residual = 1, Final residual = 1.90057871467e-61, No Iterations 72
DILUPBiCGStab:  Solving for ILambda_151_0, Initial residual = 1, Final residual = 2.26832593311e-61, No Iterations 72
DILUPBiCGStab:  Solving for ILambda_152_0, Initial residual = 1, Final residual = 9.66742587371e-61, No Iterations 71
DILUPBiCGStab:  Solving for ILambda_153_0, Initial residual = 1, Final residual = 8.6890579273e-61, No Iterations 71
DILUPBiCGStab:  Solving for ILambda_154_0, Initial residual = 1, Final residual = 7.94229411876e-61, No Iterations 69
DILUPBiCGStab:  Solving for ILambda_155_0, Initial residual = 1, Final residual = 2.48672179082e-61, No Iterations 67
DILUPBiCGStab:  Solving for ILambda_156_0, Initial residual = 1, Final residual = 9.6743408742e-61, No Iterations 73
DILUPBiCGStab:  Solving for ILambda_157_0, Initial residual = 1, Final residual = 6.693038626e-61, No Iterations 114
DILUPBiCGStab:  Solving for ILambda_158_0, Initial residual = 1, Final residual = 1.037490567e-61, No Iterations 142
DILUPBiCGStab:  Solving for ILambda_159_0, Initial residual = 1, Final residual = 4.35063690855e-61, No Iterations 162
DILUPBiCGStab:  Solving for ILambda_160_0, Initial residual = 1, Final residual = 4.80692816858e-61, No Iterations 180
DILUPBiCGStab:  Solving for ILambda_161_0, Initial residual = 1, Final residual = 2.4639937712e-61, No Iterations 188
DILUPBiCGStab:  Solving for ILambda_162_0, Initial residual = 1, Final residual = 1.77748005841e-61, No Iterations 192
DILUPBiCGStab:  Solving for ILambda_163_0, Initial residual = 1, Final residual = 4.64516491369e-61, No Iterations 181
DILUPBiCGStab:  Solving for ILambda_164_0, Initial residual = 1, Final residual = 9.84070041599e-61, No Iterations 163
DILUPBiCGStab:  Solving for ILambda_165_0, Initial residual = 1, Final residual = 9.11448608599e-61, No Iterations 143
DILUPBiCGStab:  Solving for ILambda_166_0, Initial residual = 1, Final residual = 5.60617723561e-61, No Iterations 114
DILUPBiCGStab:  Solving for ILambda_167_0, Initial residual = 1, Final residual = 3.95208721835e-61, No Iterations 72
DILUPBiCGStab:  Solving for ILambda_168_0, Initial residual = 1, Final residual = 1.3705500363e-71, No Iterations 3
DILUPBiCGStab:  Solving for ILambda_169_0, Initial residual = 1, Final residual = 1.36585316644e-69, No Iterations 3
DILUPBiCGStab:  Solving for ILambda_170_0, Initial residual = 1, Final residual = 6.16849983682e-69, No Iterations 3
DILUPBiCGStab:  Solving for ILambda_171_0, Initial residual = 1, Final residual = 8.35978464333e-69, No Iterations 3
DILUPBiCGStab:  Solving for ILambda_172_0, Initial residual = 1, Final residual = 1.60560722599e-71, No Iterations 3
DILUPBiCGStab:  Solving for ILambda_173_0, Initial residual = 1, Final residual = 1.8853654887e-72, No Iterations 3
DILUPBiCGStab:  Solving for ILambda_174_0, Initial residual = 1, Final residual = 1.428363291e-65, No Iterations 3
DILUPBiCGStab:  Solving for ILambda_175_0, Initial residual = 1, Final residual = 3.44529408529e-73, No Iterations 3
DILUPBiCGStab:  Solving for ILambda_176_0, Initial residual = 1, Final residual = 5.31760517872e-71, No Iterations 3
DILUPBiCGStab:  Solving for ILambda_177_0, Initial residual = 1, Final residual = 6.74039307926e-71, No Iterations 3
DILUPBiCGStab:  Solving for ILambda_178_0, Initial residual = 1, Final residual = 5.89006452335e-75, No Iterations 3
DILUPBiCGStab:  Solving for ILambda_179_0, Initial residual = 1, Final residual = 4.91815487894e-71, No Iterations 3
DILUPBiCGStab:  Solving for ILambda_180_0, Initial residual = 1, Final residual = 4.4299058003e-61, No Iterations 72
DILUPBiCGStab:  Solving for ILambda_181_0, Initial residual = 1, Final residual = 4.67183640917e-61, No Iterations 115
DILUPBiCGStab:  Solving for ILambda_182_0, Initial residual = 1, Final residual = 3.40781666442e-61, No Iterations 144
DILUPBiCGStab:  Solving for ILambda_183_0, Initial residual = 1, Final residual = 9.74514659286e-61, No Iterations 162
DILUPBiCGStab:  Solving for ILambda_184_0, Initial residual = 1, Final residual = 4.15387527965e-61, No Iterations 181
DILUPBiCGStab:  Solving for ILambda_185_0, Initial residual = 1, Final residual = 5.00589936672e-61, No Iterations 190
DILUPBiCGStab:  Solving for ILambda_186_0, Initial residual = 1, Final residual = 3.38117607085e-61, No Iterations 191
DILUPBiCGStab:  Solving for ILambda_187_0, Initial residual = 1, Final residual = 2.46202725703e-61, No Iterations 181
DILUPBiCGStab:  Solving for ILambda_188_0, Initial residual = 1, Final residual = 9.84508702896e-61, No Iterations 162
DILUPBiCGStab:  Solving for ILambda_189_0, Initial residual = 1, Final residual = 3.54711287294e-61, No Iterations 142
DILUPBiCGStab:  Solving for ILambda_190_0, Initial residual = 1, Final residual = 5.9095844224e-61, No Iterations 116
DILUPBiCGStab:  Solving for ILambda_191_0, Initial residual = 1, Final residual = 3.07057595044e-61, No Iterations 73
DILUPBiCGStab:  Solving for ILambda_192_0, Initial residual = 1, Final residual = 2.90619231916e-61, No Iterations 55
DILUPBiCGStab:  Solving for ILambda_193_0, Initial residual = 1, Final residual = 1.43124563888e-61, No Iterations 58
DILUPBiCGStab:  Solving for ILambda_194_0, Initial residual = 1, Final residual = 7.88247099008e-61, No Iterations 58
DILUPBiCGStab:  Solving for ILambda_195_0, Initial residual = 1, Final residual = 1.91644652354e-61, No Iterations 59
DILUPBiCGStab:  Solving for ILambda_196_0, Initial residual = 1, Final residual = 3.66505035293e-63, No Iterations 60
DILUPBiCGStab:  Solving for ILambda_197_0, Initial residual = 1, Final residual = 3.81282495531e-62, No Iterations 60
DILUPBiCGStab:  Solving for ILambda_198_0, Initial residual = 1, Final residual = 5.88702185785e-61, No Iterations 60
DILUPBiCGStab:  Solving for ILambda_199_0, Initial residual = 1, Final residual = 1.22897677286e-61, No Iterations 59
DILUPBiCGStab:  Solving for ILambda_200_0, Initial residual = 1, Final residual = 9.85621595368e-61, No Iterations 59
DILUPBiCGStab:  Solving for ILambda_201_0, Initial residual = 1, Final residual = 4.05268015853e-61, No Iterations 58
DILUPBiCGStab:  Solving for ILambda_202_0, Initial residual = 1, Final residual = 4.56267258743e-61, No Iterations 58
DILUPBiCGStab:  Solving for ILambda_203_0, Initial residual = 1, Final residual = 4.98683523019e-61, No Iterations 54
DILUPBiCGStab:  Solving for ILambda_204_0, Initial residual = 1, Final residual = 3.25388245163e-61, No Iterations 69
DILUPBiCGStab:  Solving for ILambda_205_0, Initial residual = 1, Final residual = 5.10531538457e-61, No Iterations 114
DILUPBiCGStab:  Solving for ILambda_206_0, Initial residual = 1, Final residual = 3.79521448486e-61, No Iterations 144
DILUPBiCGStab:  Solving for ILambda_207_0, Initial residual = 1, Final residual = 9.12863744713e-61, No Iterations 162
DILUPBiCGStab:  Solving for ILambda_208_0, Initial residual = 1, Final residual = 4.72027386897e-61, No Iterations 176
DILUPBiCGStab:  Solving for ILambda_209_0, Initial residual = 1, Final residual = 8.66906261752e-61, No Iterations 189
DILUPBiCGStab:  Solving for ILambda_210_0, Initial residual = 1, Final residual = 2.80773084875e-61, No Iterations 185
DILUPBiCGStab:  Solving for ILambda_211_0, Initial residual = 1, Final residual = 8.29171097532e-61, No Iterations 175
DILUPBiCGStab:  Solving for ILambda_212_0, Initial residual = 1, Final residual = 5.98404588012e-62, No Iterations 161
DILUPBiCGStab:  Solving for ILambda_213_0, Initial residual = 1, Final residual = 4.71489724926e-62, No Iterations 147
DILUPBiCGStab:  Solving for ILambda_214_0, Initial residual = 1, Final residual = 9.25986620914e-61, No Iterations 116
DILUPBiCGStab:  Solving for ILambda_215_0, Initial residual = 1, Final residual = 6.19995872014e-61, No Iterations 69
DILUPBiCGStab:  Solving for ILambda_216_0, Initial residual = 1, Final residual = 4.30167892173e-63, No Iterations 3
DILUPBiCGStab:  Solving for ILambda_217_0, Initial residual = 1, Final residual = 7.86898172548e-61, No Iterations 3
DILUPBiCGStab:  Solving for ILambda_218_0, Initial residual = 1, Final residual = 5.07789491235e-72, No Iterations 3
DILUPBiCGStab:  Solving for ILambda_219_0, Initial residual = 1, Final residual = 8.16817874201e-71, No Iterations 3
DILUPBiCGStab:  Solving for ILambda_220_0, Initial residual = 1, Final residual = 5.5199587448e-69, No Iterations 3
DILUPBiCGStab:  Solving for ILambda_221_0, Initial residual = 1, Final residual = 4.33263530075e-71, No Iterations 3
DILUPBiCGStab:  Solving for ILambda_222_0, Initial residual = 1, Final residual = 6.25378838242e-74, No Iterations 3
DILUPBiCGStab:  Solving for ILambda_223_0, Initial residual = 1, Final residual = 7.8802368282e-71, No Iterations 3
DILUPBiCGStab:  Solving for ILambda_224_0, Initial residual = 1, Final residual = 1.06365472176e-70, No Iterations 3
DILUPBiCGStab:  Solving for ILambda_225_0, Initial residual = 1, Final residual = 4.8799954129e-73, No Iterations 3
DILUPBiCGStab:  Solving for ILambda_226_0, Initial residual = 1, Final residual = 8.14459444166e-75, No Iterations 3
DILUPBiCGStab:  Solving for ILambda_227_0, Initial residual = 1, Final residual = 4.04820999048e-74, No Iterations 3
DILUPBiCGStab:  Solving for ILambda_228_0, Initial residual = 1, Final residual = 3.48428347454e-61, No Iterations 70
DILUPBiCGStab:  Solving for ILambda_229_0, Initial residual = 1, Final residual = 4.26871103924e-61, No Iterations 116
DILUPBiCGStab:  Solving for ILambda_230_0, Initial residual = 1, Final residual = 3.68139824016e-61, No Iterations 147
DILUPBiCGStab:  Solving for ILambda_231_0, Initial residual = 1, Final residual = 3.74204515677e-61, No Iterations 162
DILUPBiCGStab:  Solving for ILambda_232_0, Initial residual = 1, Final residual = 7.84704734723e-61, No Iterations 176
DILUPBiCGStab:  Solving for ILambda_233_0, Initial residual = 1, Final residual = 7.82770690297e-61, No Iterations 181
DILUPBiCGStab:  Solving for ILambda_234_0, Initial residual = 1, Final residual = 5.55458058771e-61, No Iterations 188
DILUPBiCGStab:  Solving for ILambda_235_0, Initial residual = 1, Final residual = 7.2764513811e-61, No Iterations 177
DILUPBiCGStab:  Solving for ILambda_236_0, Initial residual = 1, Final residual = 4.22349921918e-61, No Iterations 165
DILUPBiCGStab:  Solving for ILambda_237_0, Initial residual = 1, Final residual = 5.09758565488e-61, No Iterations 143
DILUPBiCGStab:  Solving for ILambda_238_0, Initial residual = 1, Final residual = 3.03027001353e-61, No Iterations 115
DILUPBiCGStab:  Solving for ILambda_239_0, Initial residual = 1, Final residual = 9.31321844364e-62, No Iterations 70
DILUPBiCGStab:  Solving for ILambda_240_0, Initial residual = 1, Final residual = 1.52263025064e-61, No Iterations 45
DILUPBiCGStab:  Solving for ILambda_241_0, Initial residual = 1, Final residual = 6.98684442135e-61, No Iterations 49
DILUPBiCGStab:  Solving for ILambda_242_0, Initial residual = 1, Final residual = 6.24351791362e-62, No Iterations 49
DILUPBiCGStab:  Solving for ILambda_243_0, Initial residual = 1, Final residual = 6.73151498679e-61, No Iterations 48
DILUPBiCGStab:  Solving for ILambda_244_0, Initial residual = 1, Final residual = 1.56497040418e-61, No Iterations 48
DILUPBiCGStab:  Solving for ILambda_245_0, Initial residual = 1, Final residual = 5.93501572913e-61, No Iterations 47
DILUPBiCGStab:  Solving for ILambda_246_0, Initial residual = 1, Final residual = 4.4025846268e-62, No Iterations 48
DILUPBiCGStab:  Solving for ILambda_247_0, Initial residual = 1, Final residual = 4.53330463934e-61, No Iterations 48
DILUPBiCGStab:  Solving for ILambda_248_0, Initial residual = 1, Final residual = 2.27983912169e-61, No Iterations 48
DILUPBiCGStab:  Solving for ILambda_249_0, Initial residual = 1, Final residual = 8.04394065818e-61, No Iterations 49
DILUPBiCGStab:  Solving for ILambda_250_0, Initial residual = 1, Final residual = 4.49026847412e-61, No Iterations 49
DILUPBiCGStab:  Solving for ILambda_251_0, Initial residual = 1, Final residual = 1.61775073649e-61, No Iterations 45
DILUPBiCGStab:  Solving for ILambda_252_0, Initial residual = 1, Final residual = 6.19353905948e-61, No Iterations 68
DILUPBiCGStab:  Solving for ILambda_253_0, Initial residual = 1, Final residual = 5.61125519456e-62, No Iterations 117
DILUPBiCGStab:  Solving for ILambda_254_0, Initial residual = 1, Final residual = 3.10041397968e-61, No Iterations 146
DILUPBiCGStab:  Solving for ILambda_255_0, Initial residual = 1, Final residual = 6.73127302082e-61, No Iterations 158
DILUPBiCGStab:  Solving for ILambda_256_0, Initial residual = 1, Final residual = 1.74414051875e-61, No Iterations 169
DILUPBiCGStab:  Solving for ILambda_257_0, Initial residual = 1, Final residual = 9.8571226214e-61, No Iterations 181
DILUPBiCGStab:  Solving for ILambda_258_0, Initial residual = 1, Final residual = 1.04361453992e-61, No Iterations 182
DILUPBiCGStab:  Solving for ILambda_259_0, Initial residual = 1, Final residual = 3.45811048621e-61, No Iterations 171
DILUPBiCGStab:  Solving for ILambda_260_0, Initial residual = 1, Final residual = 1.22817758115e-61, No Iterations 161
DILUPBiCGStab:  Solving for ILambda_261_0, Initial residual = 1, Final residual = 9.62673122503e-61, No Iterations 142
DILUPBiCGStab:  Solving for ILambda_262_0, Initial residual = 1, Final residual = 4.69544331538e-61, No Iterations 114
DILUPBiCGStab:  Solving for ILambda_263_0, Initial residual = 1, Final residual = 5.16172080276e-61, No Iterations 69
DILUPBiCGStab:  Solving for ILambda_264_0, Initial residual = 1, Final residual = 8.43074244173e-61, No Iterations 3
DILUPBiCGStab:  Solving for ILambda_265_0, Initial residual = 1, Final residual = 7.77214474964e-61, No Iterations 3
DILUPBiCGStab:  Solving for ILambda_266_0, Initial residual = 1, Final residual = 8.79716704466e-74, No Iterations 3
DILUPBiCGStab:  Solving for ILambda_267_0, Initial residual = 1, Final residual = 1.06431059101e-70, No Iterations 3
DILUPBiCGStab:  Solving for ILambda_268_0, Initial residual = 1, Final residual = 3.20832116208e-63, No Iterations 3
DILUPBiCGStab:  Solving for ILambda_269_0, Initial residual = 1, Final residual = 2.87834975416e-65, No Iterations 3
DILUPBiCGStab:  Solving for ILambda_270_0, Initial residual = 1, Final residual = 2.84035064154e-61, No Iterations 3
DILUPBiCGStab:  Solving for ILambda_271_0, Initial residual = 1, Final residual = 5.86843318825e-61, No Iterations 3
DILUPBiCGStab:  Solving for ILambda_272_0, Initial residual = 1, Final residual = 1.34079760856e-75, No Iterations 3
DILUPBiCGStab:  Solving for ILambda_273_0, Initial residual = 1, Final residual = 7.45804362035e-74, No Iterations 3
DILUPBiCGStab:  Solving for ILambda_274_0, Initial residual = 1, Final residual = 3.98219174148e-62, No Iterations 3
DILUPBiCGStab:  Solving for ILambda_275_0, Initial residual = 1, Final residual = 5.66068821083e-75, No Iterations 3
DILUPBiCGStab:  Solving for ILambda_276_0, Initial residual = 1, Final residual = 6.58394925535e-61, No Iterations 69
DILUPBiCGStab:  Solving for ILambda_277_0, Initial residual = 1, Final residual = 1.08803646727e-61, No Iterations 117
DILUPBiCGStab:  Solving for ILambda_278_0, Initial residual = 1, Final residual = 7.12243156967e-61, No Iterations 143
DILUPBiCGStab:  Solving for ILambda_279_0, Initial residual = 1, Final residual = 1.18063779229e-62, No Iterations 161
DILUPBiCGStab:  Solving for ILambda_280_0, Initial residual = 1, Final residual = 2.01645875845e-61, No Iterations 169
DILUPBiCGStab:  Solving for ILambda_281_0, Initial residual = 1, Final residual = 4.9044550517e-61, No Iterations 181
DILUPBiCGStab:  Solving for ILambda_282_0, Initial residual = 1, Final residual = 6.50325066359e-61, No Iterations 178
DILUPBiCGStab:  Solving for ILambda_283_0, Initial residual = 1, Final residual = 4.68686134147e-61, No Iterations 171
DILUPBiCGStab:  Solving for ILambda_284_0, Initial residual = 1, Final residual = 3.41464590225e-61, No Iterations 159
[...]
DILUPBiCGStab:  Solving for ILambda_140_0, Initial residual = 4.22464759314e-15, Final residual = 3.60859895796e-61, No Iterations 109
DILUPBiCGStab:  Solving for ILambda_141_0, Initial residual = 4.07336768182e-15, Final residual = 7.35400990196e-61, No Iterations 100
DILUPBiCGStab:  Solving for ILambda_142_0, Initial residual = 3.26020323584e-15, Final residual = 5.54296031556e-61, No Iterations 81
DILUPBiCGStab:  Solving for ILambda_143_0, Initial residual = 3.159405166e-15, Final residual = 3.13898435418e-61, No Iterations 50
DILUPBiCGStab:  Solving for ILambda_144_0, Initial residual = 2.40693686894e-15, Final residual = 2.30505580325e-61, No Iterations 35
DILUPBiCGStab:  Solving for ILambda_145_0, Initial residual = 2.46555177148e-15, Final residual = 2.84023821829e-61, No Iterations 38
DILUPBiCGStab:  Solving for ILambda_146_0, Initial residual = 2.53420257644e-15, Final residual = 5.34752988109e-61, No Iterations 41
DILUPBiCGStab:  Solving for ILambda_147_0, Initial residual = 2.17001117692e-15, Final residual = 8.40064845665e-61, No Iterations 38
DILUPBiCGStab:  Solving for ILambda_148_0, Initial residual = 2.27769114508e-15, Final residual = 1.25787350198e-61, No Iterations 43
DILUPBiCGStab:  Solving for ILambda_149_0, Initial residual = 2.35262870561e-15, Final residual = 6.77311775578e-61, No Iterations 39
DILUPBiCGStab:  Solving for ILambda_150_0, Initial residual = 2.26794844801e-15, Final residual = 3.39388279949e-61, No Iterations 40
DILUPBiCGStab:  Solving for ILambda_151_0, Initial residual = 2.24671132517e-15, Final residual = 1.60157270425e-61, No Iterations 37
DILUPBiCGStab:  Solving for ILambda_152_0, Initial residual = 2.34026267133e-15, Final residual = 2.1882452351e-61, No Iterations 39
DILUPBiCGStab:  Solving for ILambda_153_0, Initial residual = 3.22667885902e-15, Final residual = 1.79878350939e-61, No Iterations 39
DILUPBiCGStab:  Solving for ILambda_154_0, Initial residual = 3.12365072388e-15, Final residual = 9.08759252252e-61, No Iterations 39
DILUPBiCGStab:  Solving for ILambda_155_0, Initial residual = 3.17344975554e-15, Final residual = 2.57877416825e-61, No Iterations 37
DILUPBiCGStab:  Solving for ILambda_156_0, Initial residual = 2.72964029614e-15, Final residual = 3.74609440468e-62, No Iterations 53
DILUPBiCGStab:  Solving for ILambda_157_0, Initial residual = 3.12113736233e-15, Final residual = 4.29866453739e-61, No Iterations 75
DILUPBiCGStab:  Solving for ILambda_158_0, Initial residual = 4.36279308999e-15, Final residual = 3.05508221291e-61, No Iterations 102
DILUPBiCGStab:  Solving for ILambda_159_0, Initial residual = 4.3518586133e-15, Final residual = 3.89802548938e-61, No Iterations 114
DILUPBiCGStab:  Solving for ILambda_160_0, Initial residual = 5.55977901327e-15, Final residual = 4.26515481255e-61, No Iterations 134
DILUPBiCGStab:  Solving for ILambda_161_0, Initial residual = 5.09630423149e-15, Final residual = 3.59795055519e-61, No Iterations 138
DILUPBiCGStab:  Solving for ILambda_162_0, Initial residual = 5.3454082934e-15, Final residual = 7.25115101451e-61, No Iterations 139
DILUPBiCGStab:  Solving for ILambda_163_0, Initial residual = 5.21309087185e-15, Final residual = 9.31447138822e-61, No Iterations 125
DILUPBiCGStab:  Solving for ILambda_164_0, Initial residual = 5.06286957454e-15, Final residual = 7.26990442296e-61, No Iterations 113
DILUPBiCGStab:  Solving for ILambda_165_0, Initial residual = 4.71414746181e-15, Final residual = 8.19537674009e-61, No Iterations 98
DILUPBiCGStab:  Solving for ILambda_166_0, Initial residual = 3.94024445512e-15, Final residual = 6.33105688328e-61, No Iterations 80
DILUPBiCGStab:  Solving for ILambda_167_0, Initial residual = 3.46752301221e-15, Final residual = 5.66017718089e-61, No Iterations 49
DILUPBiCGStab:  Solving for ILambda_168_0, Initial residual = 3.12401236853e-15, Final residual = 3.37595778094e-72, No Iterations 2
DILUPBiCGStab:  Solving for ILambda_169_0, Initial residual = 3.07654695809e-15, Final residual = 4.92306139348e-71, No Iterations 2
DILUPBiCGStab:  Solving for ILambda_170_0, Initial residual = 3.22644568597e-15, Final residual = 1.36127715123e-71, No Iterations 2
DILUPBiCGStab:  Solving for ILambda_171_0, Initial residual = 2.26676781692e-15, Final residual = 8.3117187369e-71, No Iterations 2
DILUPBiCGStab:  Solving for ILambda_172_0, Initial residual = 2.24745564983e-15, Final residual = 2.60714278468e-71, No Iterations 2
DILUPBiCGStab:  Solving for ILambda_173_0, Initial residual = 2.28237307859e-15, Final residual = 3.95182773304e-71, No Iterations 2
DILUPBiCGStab:  Solving for ILambda_174_0, Initial residual = 2.34581228596e-15, Final residual = 5.91789745936e-71, No Iterations 2
DILUPBiCGStab:  Solving for ILambda_175_0, Initial residual = 2.29297082562e-15, Final residual = 9.26891102845e-71, No Iterations 2
DILUPBiCGStab:  Solving for ILambda_176_0, Initial residual = 2.09597419228e-15, Final residual = 5.05066505923e-70, No Iterations 2
DILUPBiCGStab:  Solving for ILambda_177_0, Initial residual = 2.53894711915e-15, Final residual = 6.78752273025e-71, No Iterations 2
DILUPBiCGStab:  Solving for ILambda_178_0, Initial residual = 2.43527648755e-15, Final residual = 2.22182177073e-70, No Iterations 2
DILUPBiCGStab:  Solving for ILambda_179_0, Initial residual = 2.47535770434e-15, Final residual = 2.89387581953e-70, No Iterations 2
DILUPBiCGStab:  Solving for ILambda_180_0, Initial residual = 3.57730300427e-15, Final residual = 3.38969831751e-61, No Iterations 51
DILUPBiCGStab:  Solving for ILambda_181_0, Initial residual = 3.70439740176e-15, Final residual = 4.32246513435e-61, No Iterations 82
DILUPBiCGStab:  Solving for ILambda_182_0, Initial residual = 5.18080285196e-15, Final residual = 3.41415250176e-61, No Iterations 103
DILUPBiCGStab:  Solving for ILambda_183_0, Initial residual = 4.0024135889e-15, Final residual = 5.56398210454e-61, No Iterations 113
DILUPBiCGStab:  Solving for ILambda_184_0, Initial residual = 4.82400722494e-15, Final residual = 4.23392331967e-61, No Iterations 126
DILUPBiCGStab:  Solving for ILambda_185_0, Initial residual = 5.64706637355e-15, Final residual = 7.88695395815e-61, No Iterations 134
DILUPBiCGStab:  Solving for ILambda_186_0, Initial residual = 5.52195026334e-15, Final residual = 4.79948075669e-61, No Iterations 132
DILUPBiCGStab:  Solving for ILambda_187_0, Initial residual = 4.8551141487e-15, Final residual = 6.86817220254e-61, No Iterations 123
DILUPBiCGStab:  Solving for ILambda_188_0, Initial residual = 4.29551702285e-15, Final residual = 5.07547493344e-61, No Iterations 113
DILUPBiCGStab:  Solving for ILambda_189_0, Initial residual = 4.15296900178e-15, Final residual = 7.43320471243e-61, No Iterations 102
DILUPBiCGStab:  Solving for ILambda_190_0, Initial residual = 2.92366871897e-15, Final residual = 3.36336342674e-61, No Iterations 81
DILUPBiCGStab:  Solving for ILambda_191_0, Initial residual = 2.82998989224e-15, Final residual = 9.23360581967e-61, No Iterations 53
DILUPBiCGStab:  Solving for ILambda_192_0, Initial residual = 6.19896460521e-16, Final residual = 2.96401509983e-61, No Iterations 31
DILUPBiCGStab:  Solving for ILambda_193_0, Initial residual = 6.24724383985e-16, Final residual = 3.43185500865e-62, No Iterations 33
DILUPBiCGStab:  Solving for ILambda_194_0, Initial residual = 6.26642603096e-16, Final residual = 3.14899482499e-61, No Iterations 31
DILUPBiCGStab:  Solving for ILambda_195_0, Initial residual = 6.45833485242e-16, Final residual = 8.72331405248e-61, No Iterations 32
DILUPBiCGStab:  Solving for ILambda_196_0, Initial residual = 5.16532314674e-16, Final residual = 3.28467488765e-61, No Iterations 33
DILUPBiCGStab:  Solving for ILambda_197_0, Initial residual = 5.03206017993e-16, Final residual = 3.34936449529e-61, No Iterations 32
DILUPBiCGStab:  Solving for ILambda_198_0, Initial residual = 4.11968873411e-16, Final residual = 5.81506432737e-61, No Iterations 32
DILUPBiCGStab:  Solving for ILambda_199_0, Initial residual = 5.22007538664e-16, Final residual = 1.34498561275e-61, No Iterations 33
DILUPBiCGStab:  Solving for ILambda_200_0, Initial residual = 8.71378203821e-16, Final residual = 6.8602797347e-61, No Iterations 34
DILUPBiCGStab:  Solving for ILambda_201_0, Initial residual = 8.1822493819e-16, Final residual = 2.27553818136e-61, No Iterations 34
DILUPBiCGStab:  Solving for ILambda_202_0, Initial residual = 7.98556961583e-16, Final residual = 3.56347954646e-61, No Iterations 32
DILUPBiCGStab:  Solving for ILambda_203_0, Initial residual = 7.89615873918e-16, Final residual = 1.17255968761e-61, No Iterations 31
DILUPBiCGStab:  Solving for ILambda_204_0, Initial residual = 7.05468900319e-16, Final residual = 8.3161343999e-61, No Iterations 51
DILUPBiCGStab:  Solving for ILambda_205_0, Initial residual = 1.03879973577e-15, Final residual = 3.12254131093e-61, No Iterations 80
DILUPBiCGStab:  Solving for ILambda_206_0, Initial residual = 9.59145190851e-16, Final residual = 5.10515267741e-61, No Iterations 105
DILUPBiCGStab:  Solving for ILambda_207_0, Initial residual = 1.3323569617e-15, Final residual = 4.88090226446e-61, No Iterations 112
DILUPBiCGStab:  Solving for ILambda_208_0, Initial residual = 1.2845804638e-15, Final residual = 7.16217829596e-61, No Iterations 119
DILUPBiCGStab:  Solving for ILambda_209_0, Initial residual = 1.00072599849e-15, Final residual = 2.39897917955e-61, No Iterations 130
DILUPBiCGStab:  Solving for ILambda_210_0, Initial residual = 1.42200098801e-15, Final residual = 7.61373693141e-61, No Iterations 134
DILUPBiCGStab:  Solving for ILambda_211_0, Initial residual = 1.18128914465e-15, Final residual = 6.48835048602e-61, No Iterations 121
DILUPBiCGStab:  Solving for ILambda_212_0, Initial residual = 1.2572870981e-15, Final residual = 5.22134723093e-61, No Iterations 112
DILUPBiCGStab:  Solving for ILambda_213_0, Initial residual = 1.10215841257e-15, Final residual = 5.28681741579e-61, No Iterations 100
DILUPBiCGStab:  Solving for ILambda_214_0, Initial residual = 1.10545683079e-15, Final residual = 7.97919270776e-61, No Iterations 79
DILUPBiCGStab:  Solving for ILambda_215_0, Initial residual = 8.73374364609e-16, Final residual = 3.27527190393e-61, No Iterations 48
DILUPBiCGStab:  Solving for ILambda_216_0, Initial residual = 7.94327646633e-16, Final residual = 2.04416756012e-73, No Iterations 2
DILUPBiCGStab:  Solving for ILambda_217_0, Initial residual = 8.08702817505e-16, Final residual = 3.13126419789e-72, No Iterations 2
DILUPBiCGStab:  Solving for ILambda_218_0, Initial residual = 8.17856699258e-16, Final residual = 3.67871850777e-72, No Iterations 2
DILUPBiCGStab:  Solving for ILambda_219_0, Initial residual = 8.74669318508e-16, Final residual = 9.39888132355e-73, No Iterations 2
DILUPBiCGStab:  Solving for ILambda_220_0, Initial residual = 5.38586903633e-16, Final residual = 2.73489454209e-70, No Iterations 2
DILUPBiCGStab:  Solving for ILambda_221_0, Initial residual = 4.59117902687e-16, Final residual = 4.42656013407e-70, No Iterations 2
DILUPBiCGStab:  Solving for ILambda_222_0, Initial residual = 3.86202161491e-16, Final residual = 2.79082390025e-72, No Iterations 2
DILUPBiCGStab:  Solving for ILambda_223_0, Initial residual = 5.57949588428e-16, Final residual = 2.31400049403e-70, No Iterations 2
DILUPBiCGStab:  Solving for ILambda_224_0, Initial residual = 6.28115499281e-16, Final residual = 2.79517990696e-72, No Iterations 2
DILUPBiCGStab:  Solving for ILambda_225_0, Initial residual = 6.40928513311e-16, Final residual = 2.09536732645e-70, No Iterations 2
DILUPBiCGStab:  Solving for ILambda_226_0, Initial residual = 6.20368021122e-16, Final residual = 2.0376240927e-71, No Iterations 2
DILUPBiCGStab:  Solving for ILambda_227_0, Initial residual = 6.22996156007e-16, Final residual = 1.42000152878e-71, No Iterations 2
DILUPBiCGStab:  Solving for ILambda_228_0, Initial residual = 9.59763328927e-16, Final residual = 9.42589661989e-61, No Iterations 46
DILUPBiCGStab:  Solving for ILambda_229_0, Initial residual = 1.0856907873e-15, Final residual = 4.25506545974e-61, No Iterations 80
DILUPBiCGStab:  Solving for ILambda_230_0, Initial residual = 1.17521124979e-15, Final residual = 8.47812200216e-61, No Iterations 95
DILUPBiCGStab:  Solving for ILambda_231_0, Initial residual = 1.46278756812e-15, Final residual = 9.08731643497e-61, No Iterations 110
DILUPBiCGStab:  Solving for ILambda_232_0, Initial residual = 1.2581997257e-15, Final residual = 6.37844990919e-61, No Iterations 121
DILUPBiCGStab:  Solving for ILambda_233_0, Initial residual = 1.14246229741e-15, Final residual = 7.90535994591e-61, No Iterations 131
DILUPBiCGStab:  Solving for ILambda_234_0, Initial residual = 1.40934632439e-15, Final residual = 3.20017130375e-61, No Iterations 139
DILUPBiCGStab:  Solving for ILambda_235_0, Initial residual = 1.17102707711e-15, Final residual = 8.44456449277e-61, No Iterations 128
DILUPBiCGStab:  Solving for ILambda_236_0, Initial residual = 1.10140471508e-15, Final residual = 4.861101353e-61, No Iterations 112
DILUPBiCGStab:  Solving for ILambda_237_0, Initial residual = 1.28282255107e-15, Final residual = 7.23549312783e-61, No Iterations 100
DILUPBiCGStab:  Solving for ILambda_238_0, Initial residual = 9.30604783592e-16, Final residual = 4.49761271033e-61, No Iterations 81
DILUPBiCGStab:  Solving for ILambda_239_0, Initial residual = 7.05456458803e-16, Final residual = 2.95097680364e-61, No Iterations 49
DILUPBiCGStab:  Solving for ILambda_240_0, Initial residual = 1.67174581207e-16, Final residual = 1.95401267429e-61, No Iterations 24
DILUPBiCGStab:  Solving for ILambda_241_0, Initial residual = 1.67467994887e-16, Final residual = 8.38166792162e-62, No Iterations 24
DILUPBiCGStab:  Solving for ILambda_242_0, Initial residual = 2.47357190629e-16, Final residual = 7.29795869249e-63, No Iterations 25
DILUPBiCGStab:  Solving for ILambda_243_0, Initial residual = 2.45654194898e-16, Final residual = 8.16934515919e-61, No Iterations 26
DILUPBiCGStab:  Solving for ILambda_244_0, Initial residual = 2.46089375598e-16, Final residual = 4.92035754555e-61, No Iterations 26
DILUPBiCGStab:  Solving for ILambda_245_0, Initial residual = 2.4874168642e-16, Final residual = 3.24175404997e-61, No Iterations 26
DILUPBiCGStab:  Solving for ILambda_246_0, Initial residual = 2.51431443929e-16, Final residual = 3.41600435961e-61, No Iterations 27
DILUPBiCGStab:  Solving for ILambda_247_0, Initial residual = 2.63412175479e-16, Final residual = 1.96037029709e-62, No Iterations 26
DILUPBiCGStab:  Solving for ILambda_248_0, Initial residual = 2.62773078704e-16, Final residual = 2.53147105581e-61, No Iterations 25
DILUPBiCGStab:  Solving for ILambda_249_0, Initial residual = 2.64867093655e-16, Final residual = 4.96900385994e-61, No Iterations 25
DILUPBiCGStab:  Solving for ILambda_250_0, Initial residual = 1.78825855103e-16, Final residual = 2.04268885108e-61, No Iterations 25
DILUPBiCGStab:  Solving for ILambda_251_0, Initial residual = 1.52893608572e-16, Final residual = 1.02894252824e-61, No Iterations 24
DILUPBiCGStab:  Solving for ILambda_252_0, Initial residual = 2.44079194638e-16, Final residual = 2.43155683058e-61, No Iterations 48
DILUPBiCGStab:  Solving for ILambda_253_0, Initial residual = 2.48515601267e-16, Final residual = 9.31898293447e-61, No Iterations 77
DILUPBiCGStab:  Solving for ILambda_254_0, Initial residual = 4.12696162685e-16, Final residual = 1.73331963111e-61, No Iterations 101
DILUPBiCGStab:  Solving for ILambda_255_0, Initial residual = 4.52923083719e-16, Final residual = 5.16088113933e-61, No Iterations 110
DILUPBiCGStab:  Solving for ILambda_256_0, Initial residual = 4.70823810352e-16, Final residual = 6.11033738283e-61, No Iterations 125
DILUPBiCGStab:  Solving for ILambda_257_0, Initial residual = 4.9936839899e-16, Final residual = 2.58223200395e-61, No Iterations 131
DILUPBiCGStab:  Solving for ILambda_258_0, Initial residual = 4.83458757561e-16, Final residual = 2.24632849519e-61, No Iterations 140
DILUPBiCGStab:  Solving for ILambda_259_0, Initial residual = 3.73998915949e-16, Final residual = 7.65387697822e-61, No Iterations 125
DILUPBiCGStab:  Solving for ILambda_260_0, Initial residual = 4.87766222996e-16, Final residual = 7.30819378372e-61, No Iterations 112
DILUPBiCGStab:  Solving for ILambda_261_0, Initial residual = 4.17856810913e-16, Final residual = 7.88507544193e-61, No Iterations 98
DILUPBiCGStab:  Solving for ILambda_262_0, Initial residual = 2.60847071647e-16, Final residual = 4.90902728238e-61, No Iterations 79
DILUPBiCGStab:  Solving for ILambda_263_0, Initial residual = 1.83377703239e-16, Final residual = 4.29803101549e-61, No Iterations 48
DILUPBiCGStab:  Solving for ILambda_264_0, Initial residual = 1.54705712321e-16, Final residual = 4.99557880151e-72, No Iterations 2
DILUPBiCGStab:  Solving for ILambda_265_0, Initial residual = 1.84884626321e-16, Final residual = 2.48701803471e-73, No Iterations 2
DILUPBiCGStab:  Solving for ILambda_266_0, Initial residual = 2.5943245367e-16, Final residual = 2.57906128374e-71, No Iterations 2
DILUPBiCGStab:  Solving for ILambda_267_0, Initial residual = 2.6263453861e-16, Final residual = 4.6177289751e-71, No Iterations 2
DILUPBiCGStab:  Solving for ILambda_268_0, Initial residual = 2.59910343549e-16, Final residual = 6.95187845576e-72, No Iterations 2
DILUPBiCGStab:  Solving for ILambda_269_0, Initial residual = 2.49243417005e-16, Final residual = 1.08054368908e-71, No Iterations 2
DILUPBiCGStab:  Solving for ILambda_270_0, Initial residual = 2.49521189848e-16, Final residual = 9.0126632261e-72, No Iterations 2
DILUPBiCGStab:  Solving for ILambda_271_0, Initial residual = 2.477540829e-16, Final residual = 1.34929446157e-71, No Iterations 2
DILUPBiCGStab:  Solving for ILambda_272_0, Initial residual = 2.465304444e-16, Final residual = 3.87880059259e-71, No Iterations 2
DILUPBiCGStab:  Solving for ILambda_273_0, Initial residual = 2.47942303758e-16, Final residual = 2.8685025045e-71, No Iterations 2
DILUPBiCGStab:  Solving for ILambda_274_0, Initial residual = 1.74798040629e-16, Final residual = 1.07553883262e-71, No Iterations 2
DILUPBiCGStab:  Solving for ILambda_275_0, Initial residual = 1.67981855121e-16, Final residual = 4.07601799979e-72, No Iterations 2
DILUPBiCGStab:  Solving for ILambda_276_0, Initial residual = 2.26488119052e-16, Final residual = 3.45648809393e-61, No Iterations 48
DILUPBiCGStab:  Solving for ILambda_277_0, Initial residual = 2.89636542078e-16, Final residual = 3.60592029409e-61, No Iterations 77
DILUPBiCGStab:  Solving for ILambda_278_0, Initial residual = 4.55535043027e-16, Final residual = 4.0039767093e-61, No Iterations 98
DILUPBiCGStab:  Solving for ILambda_279_0, Initial residual = 3.80194426998e-16, Final residual = 7.24110973545e-61, No Iterations 116
DILUPBiCGStab:  Solving for ILambda_280_0, Initial residual = 3.99896032055e-16, Final residual = 7.6660023977e-61, No Iterations 125
DILUPBiCGStab:  Solving for ILambda_281_0, Initial residual = 5.47411743374e-16, Final residual = 3.98123248142e-61, No Iterations 137
DILUPBiCGStab:  Solving for ILambda_282_0, Initial residual = 4.28531152355e-16, Final residual = 6.52396238791e-61, No Iterations 134
DILUPBiCGStab:  Solving for ILambda_283_0, Initial residual = 4.12024420154e-16, Final residual = 6.4870942436e-61, No Iterations 128
DILUPBiCGStab:  Solving for ILambda_284_0, Initial residual = 4.78987170463e-16, Final residual = 8.31616686559e-62, No Iterations 113
DILUPBiCGStab:  Solving for ILambda_285_0, Initial residual = 3.39243368827e-16, Final residual = 7.7374399812e-61, No Iterations 101
DILUPBiCGStab:  Solving for ILambda_286_0, Initial residual = 2.86699433935e-16, Final residual = 5.57657796258e-61, No Iterations 79
DILUPBiCGStab:  Solving for ILambda_287_0, Initial residual = 2.23980379367e-16, Final residual = 3.30367504444e-62, No Iterations 51
min/max(T) = 1000, 1000
ExecutionTime = 8371.8 s  ClockTime = 8372 s

writeObjects writeObjects1.writeObjects write:
    writing object a
    writing object qem
End

