/*---------------------------------------------------------------------------*\
| =========                 |                                                 |
| \\      /  F ield         | OpenFOAM: The Open Source CFD Toolbox           |
|  \\    /   O peration     | Version:  2306                                  |
|   \\  /    A nd           | Website:  www.openfoam.com                      |
|    \\/     M anipulation  |                                                 |
\*---------------------------------------------------------------------------*/
Build  : _fbf00d6b-20230626 OPENFOAM=2306 version=2306
Arch   : "LSB;label=32;scalar=64"
Exec   : fireRADFoam_MaCFP
Date   : Mar 12 2024
Time   : 19:49:30
Host   : pop-os
PID    : 174446
I/O    : uncollated
Case   : /home/rafay/Desktop/Study/Radiative_Heat_Transfer/Local_copy_RHT2324/01_Projects/02_Rafay/Case_1_q1D_SolidAngle/new_case3/th_4-ph_8/tau_0.05/res_4
nProcs : 1
trapFpe: Floating point exception trapping enabled (FOAM_SIGFPE).
fileModificationChecking : Monitoring run-time modified files using timeStampMaster (fileModificationSkew 5, maxFileModificationPolls 20)
allowSystemOperations : Allowing user-supplied system call operations

// * * * * * * * * * * * * * * * * * * * * * * * * * * * * * * * * * * * * * //
Create time

Create mesh for time = 0


PIMPLE: no residual control data found. Calculations will employ 10 corrector loops

Reading thermophysical properties

Selecting thermodynamics package 
{
    type            hePsiThermo;
    mixture         singleStepReactingMixture;
    transport       sutherland;
    thermo          janaf;
    energy          sensibleEnthalpy;
    equationOfState perfectGas;
    specie          specie;
}

Selecting chemistryReader foamChemistryReader
    elements not defined in "/home/rafay/Desktop/Study/Radiative_Heat_Transfer/Local_copy_RHT2324/01_Projects/02_Rafay/Case_1_q1D_SolidAngle/new_case3/th_4-ph_8/tau_0.05/res_4/constant/reactions"
Fuel heat of combustion :47168962.4726
stoichiometric air-fuel ratio :14.6914056505
stoichiometric oxygen-fuel ratio :3.42181919285
Maximum products mass concentrations:
    H2O: 0.0818486943001
    CO2: 0.199950099979
    N2: 0.718201205721
Creating component thermo properties:
    multi-component carrier - 6 species
    no liquid components
    no solid components
Creating field rho


Reading field U

Reading/calculating face flux field phi

Selecting radiationModel fvDOM
Selecting absorptionEmissionModel constantAbsorptionEmission
Selecting scatterModel none
Selecting sootModel none
fvDOM : Allocated 128 rays with average orientation:
	I0 : dAve : 	(0.00274192284156 0.0278392098 0.0490873852123) : omega : 	0.0575094490319 : d : 	(0.0375095356919 0.38084070704 0.923879532511)
	I1 : dAve : 	(0.00812039796756 0.0267693645798 0.0490873852123) : omega : 	0.0575094490319 : d : 	(0.111087136655 0.366205212247 0.923879532511)
	I2 : dAve : 	(0.0131868107536 0.0246707876912 0.0490873852123) : omega : 	0.0575094490319 : d : 	(0.180395721254 0.337496656517 0.923879532511)
	I3 : dAve : 	(0.0177464617977 0.0216241262672 0.0490873852123) : omega : 	0.0575094490319 : d : 	(0.242771799453 0.295818293547 0.923879532511)
	I4 : dAve : 	(0.0216241262672 0.0177464617977 0.0490873852123) : omega : 	0.0575094490319 : d : 	(0.295818293547 0.242771799453 0.923879532511)
	I5 : dAve : 	(0.0246707876912 0.0131868107536 0.0490873852123) : omega : 	0.0575094490319 : d : 	(0.337496656517 0.180395721254 0.923879532511)
	I6 : dAve : 	(0.0267693645798 0.00812039796756 0.0490873852123) : omega : 	0.0575094490319 : d : 	(0.366205212247 0.111087136655 0.923879532511)
	I7 : dAve : 	(0.0278392098 0.00274192284156 0.0490873852123) : omega : 	0.0575094490319 : d : 	(0.38084070704 0.0375095356919 0.923879532511)
	I8 : dAve : 	(0.0278392098 -0.00274192284156 0.0490873852123) : omega : 	0.0575094490319 : d : 	(0.38084070704 -0.0375095356919 0.923879532511)
	I9 : dAve : 	(0.0267693645798 -0.00812039796756 0.0490873852123) : omega : 	0.0575094490319 : d : 	(0.366205212247 -0.111087136655 0.923879532511)
	I10 : dAve : 	(0.0246707876912 -0.0131868107536 0.0490873852123) : omega : 	0.0575094490319 : d : 	(0.337496656517 -0.180395721254 0.923879532511)
	I11 : dAve : 	(0.0216241262672 -0.0177464617977 0.0490873852123) : omega : 	0.0575094490319 : d : 	(0.295818293547 -0.242771799453 0.923879532511)
	I12 : dAve : 	(0.0177464617977 -0.0216241262672 0.0490873852123) : omega : 	0.0575094490319 : d : 	(0.242771799453 -0.295818293547 0.923879532511)
	I13 : dAve : 	(0.0131868107536 -0.0246707876912 0.0490873852123) : omega : 	0.0575094490319 : d : 	(0.180395721254 -0.337496656517 0.923879532511)
	I14 : dAve : 	(0.00812039796756 -0.0267693645798 0.0490873852123) : omega : 	0.0575094490319 : d : 	(0.111087136655 -0.366205212247 0.923879532511)
	I15 : dAve : 	(0.00274192284156 -0.0278392098 0.0490873852123) : omega : 	0.0575094490319 : d : 	(0.0375095356919 -0.38084070704 0.923879532511)
	I16 : dAve : 	(-0.00274192284156 -0.0278392098 0.0490873852123) : omega : 	0.0575094490319 : d : 	(-0.0375095356919 -0.38084070704 0.923879532511)
	I17 : dAve : 	(-0.00812039796756 -0.0267693645798 0.0490873852123) : omega : 	0.0575094490319 : d : 	(-0.111087136655 -0.366205212247 0.923879532511)
	I18 : dAve : 	(-0.0131868107536 -0.0246707876912 0.0490873852123) : omega : 	0.0575094490319 : d : 	(-0.180395721254 -0.337496656517 0.923879532511)
	I19 : dAve : 	(-0.0177464617977 -0.0216241262672 0.0490873852123) : omega : 	0.0575094490319 : d : 	(-0.242771799453 -0.295818293547 0.923879532511)
	I20 : dAve : 	(-0.0216241262672 -0.0177464617977 0.0490873852123) : omega : 	0.0575094490319 : d : 	(-0.295818293547 -0.242771799453 0.923879532511)
	I21 : dAve : 	(-0.0246707876912 -0.0131868107536 0.0490873852123) : omega : 	0.0575094490319 : d : 	(-0.337496656517 -0.180395721254 0.923879532511)
	I22 : dAve : 	(-0.0267693645798 -0.00812039796756 0.0490873852123) : omega : 	0.0575094490319 : d : 	(-0.366205212247 -0.111087136655 0.923879532511)
	I23 : dAve : 	(-0.0278392098 -0.00274192284156 0.0490873852123) : omega : 	0.0575094490319 : d : 	(-0.38084070704 -0.0375095356919 0.923879532511)
	I24 : dAve : 	(-0.0278392098 0.00274192284156 0.0490873852123) : omega : 	0.0575094490319 : d : 	(-0.38084070704 0.0375095356919 0.923879532511)
	I25 : dAve : 	(-0.0267693645798 0.00812039796756 0.0490873852123) : omega : 	0.0575094490319 : d : 	(-0.366205212247 0.111087136655 0.923879532511)
	I26 : dAve : 	(-0.0246707876912 0.0131868107536 0.0490873852123) : omega : 	0.0575094490319 : d : 	(-0.337496656517 0.180395721254 0.923879532511)
	I27 : dAve : 	(-0.0216241262672 0.0177464617977 0.0490873852123) : omega : 	0.0575094490319 : d : 	(-0.295818293547 0.242771799453 0.923879532511)
	I28 : dAve : 	(-0.0177464617977 0.0216241262672 0.0490873852123) : omega : 	0.0575094490319 : d : 	(-0.242771799453 0.295818293547 0.923879532511)
	I29 : dAve : 	(-0.0131868107536 0.0246707876912 0.0490873852123) : omega : 	0.0575094490319 : d : 	(-0.180395721254 0.337496656517 0.923879532511)
	I30 : dAve : 	(-0.00812039796756 0.0267693645798 0.0490873852123) : omega : 	0.0575094490319 : d : 	(-0.111087136655 0.366205212247 0.923879532511)
	I31 : dAve : 	(-0.00274192284156 0.0278392098 0.0490873852123) : omega : 	0.0575094490319 : d : 	(-0.0375095356919 0.38084070704 0.923879532511)
	I32 : dAve : 	(0.0123492826399 0.125384370808 0.0490873852123) : omega : 	0.138840091817 : d : 	(0.0905560297858 0.91943080004 0.382683432365)
	I33 : dAve : 	(0.0365732719135 0.120565919754 0.0490873852123) : omega : 	0.138840091817 : d : 	(0.268188071917 0.884097590017 0.382683432365)
	I34 : dAve : 	(0.059391770858 0.111114188018 0.0490873852123) : omega : 	0.138840091817 : d : 	(0.435513796846 0.814789005418 0.382683432365)
	I35 : dAve : 	(0.0799278773557 0.0973924003507 0.0490873852123) : omega : 	0.138840091817 : d : 	(0.586102970801 0.714168536279 0.382683432365)
	I36 : dAve : 	(0.0973924003507 0.0799278773557 0.0490873852123) : omega : 	0.138840091817 : d : 	(0.714168536279 0.586102970801 0.382683432365)
	I37 : dAve : 	(0.111114188018 0.059391770858 0.0490873852123) : omega : 	0.138840091817 : d : 	(0.814789005418 0.435513796846 0.382683432365)
	I38 : dAve : 	(0.120565919754 0.0365732719135 0.0490873852123) : omega : 	0.138840091817 : d : 	(0.884097590017 0.268188071917 0.382683432365)
	I39 : dAve : 	(0.125384370808 0.0123492826399 0.0490873852123) : omega : 	0.138840091817 : d : 	(0.91943080004 0.0905560297858 0.382683432365)
	I40 : dAve : 	(0.125384370808 -0.0123492826399 0.0490873852123) : omega : 	0.138840091817 : d : 	(0.91943080004 -0.0905560297858 0.382683432365)
	I41 : dAve : 	(0.120565919754 -0.0365732719135 0.0490873852123) : omega : 	0.138840091817 : d : 	(0.884097590017 -0.268188071917 0.382683432365)
	I42 : dAve : 	(0.111114188018 -0.059391770858 0.0490873852123) : omega : 	0.138840091817 : d : 	(0.814789005418 -0.435513796846 0.382683432365)
	I43 : dAve : 	(0.0973924003507 -0.0799278773557 0.0490873852123) : omega : 	0.138840091817 : d : 	(0.714168536279 -0.586102970801 0.382683432365)
	I44 : dAve : 	(0.0799278773557 -0.0973924003507 0.0490873852123) : omega : 	0.138840091817 : d : 	(0.586102970801 -0.714168536279 0.382683432365)
	I45 : dAve : 	(0.059391770858 -0.111114188018 0.0490873852123) : omega : 	0.138840091817 : d : 	(0.435513796846 -0.814789005418 0.382683432365)
	I46 : dAve : 	(0.0365732719135 -0.120565919754 0.0490873852123) : omega : 	0.138840091817 : d : 	(0.268188071917 -0.884097590017 0.382683432365)
	I47 : dAve : 	(0.0123492826399 -0.125384370808 0.0490873852123) : omega : 	0.138840091817 : d : 	(0.0905560297858 -0.91943080004 0.382683432365)
	I48 : dAve : 	(-0.0123492826399 -0.125384370808 0.0490873852123) : omega : 	0.138840091817 : d : 	(-0.0905560297858 -0.91943080004 0.382683432365)
	I49 : dAve : 	(-0.0365732719135 -0.120565919754 0.0490873852123) : omega : 	0.138840091817 : d : 	(-0.268188071917 -0.884097590017 0.382683432365)
	I50 : dAve : 	(-0.059391770858 -0.111114188018 0.0490873852123) : omega : 	0.138840091817 : d : 	(-0.435513796846 -0.814789005418 0.382683432365)
	I51 : dAve : 	(-0.0799278773557 -0.0973924003507 0.0490873852123) : omega : 	0.138840091817 : d : 	(-0.586102970801 -0.714168536279 0.382683432365)
	I52 : dAve : 	(-0.0973924003507 -0.0799278773557 0.0490873852123) : omega : 	0.138840091817 : d : 	(-0.714168536279 -0.586102970801 0.382683432365)
	I53 : dAve : 	(-0.111114188018 -0.059391770858 0.0490873852123) : omega : 	0.138840091817 : d : 	(-0.814789005418 -0.435513796846 0.382683432365)
	I54 : dAve : 	(-0.120565919754 -0.0365732719135 0.0490873852123) : omega : 	0.138840091817 : d : 	(-0.884097590017 -0.268188071917 0.382683432365)
	I55 : dAve : 	(-0.125384370808 -0.0123492826399 0.0490873852123) : omega : 	0.138840091817 : d : 	(-0.91943080004 -0.0905560297858 0.382683432365)
	I56 : dAve : 	(-0.125384370808 0.0123492826399 0.0490873852123) : omega : 	0.138840091817 : d : 	(-0.91943080004 0.0905560297858 0.382683432365)
	I57 : dAve : 	(-0.120565919754 0.0365732719135 0.0490873852123) : omega : 	0.138840091817 : d : 	(-0.884097590017 0.268188071917 0.382683432365)
	I58 : dAve : 	(-0.111114188018 0.059391770858 0.0490873852123) : omega : 	0.138840091817 : d : 	(-0.814789005418 0.435513796846 0.382683432365)
	I59 : dAve : 	(-0.0973924003507 0.0799278773557 0.0490873852123) : omega : 	0.138840091817 : d : 	(-0.714168536279 0.586102970801 0.382683432365)
	I60 : dAve : 	(-0.0799278773557 0.0973924003507 0.0490873852123) : omega : 	0.138840091817 : d : 	(-0.586102970801 0.714168536279 0.382683432365)
	I61 : dAve : 	(-0.059391770858 0.111114188018 0.0490873852123) : omega : 	0.138840091817 : d : 	(-0.435513796846 0.814789005418 0.382683432365)
	I62 : dAve : 	(-0.0365732719135 0.120565919754 0.0490873852123) : omega : 	0.138840091817 : d : 	(-0.268188071917 0.884097590017 0.382683432365)
	I63 : dAve : 	(-0.0123492826399 0.125384370808 0.0490873852123) : omega : 	0.138840091817 : d : 	(-0.0905560297858 0.91943080004 0.382683432365)
	I64 : dAve : 	(0.0123492826399 0.125384370808 -0.0490873852123) : omega : 	0.138840091817 : d : 	(0.0905560297858 0.91943080004 -0.382683432365)
	I65 : dAve : 	(0.0365732719135 0.120565919754 -0.0490873852123) : omega : 	0.138840091817 : d : 	(0.268188071917 0.884097590017 -0.382683432365)
	I66 : dAve : 	(0.059391770858 0.111114188018 -0.0490873852123) : omega : 	0.138840091817 : d : 	(0.435513796846 0.814789005418 -0.382683432365)
	I67 : dAve : 	(0.0799278773557 0.0973924003507 -0.0490873852123) : omega : 	0.138840091817 : d : 	(0.586102970801 0.714168536279 -0.382683432365)
	I68 : dAve : 	(0.0973924003507 0.0799278773557 -0.0490873852123) : omega : 	0.138840091817 : d : 	(0.714168536279 0.586102970801 -0.382683432365)
	I69 : dAve : 	(0.111114188018 0.059391770858 -0.0490873852123) : omega : 	0.138840091817 : d : 	(0.814789005418 0.435513796846 -0.382683432365)
	I70 : dAve : 	(0.120565919754 0.0365732719135 -0.0490873852123) : omega : 	0.138840091817 : d : 	(0.884097590017 0.268188071917 -0.382683432365)
	I71 : dAve : 	(0.125384370808 0.0123492826399 -0.0490873852123) : omega : 	0.138840091817 : d : 	(0.91943080004 0.0905560297858 -0.382683432365)
	I72 : dAve : 	(0.125384370808 -0.0123492826399 -0.0490873852123) : omega : 	0.138840091817 : d : 	(0.91943080004 -0.0905560297858 -0.382683432365)
	I73 : dAve : 	(0.120565919754 -0.0365732719135 -0.0490873852123) : omega : 	0.138840091817 : d : 	(0.884097590017 -0.268188071917 -0.382683432365)
	I74 : dAve : 	(0.111114188018 -0.059391770858 -0.0490873852123) : omega : 	0.138840091817 : d : 	(0.814789005418 -0.435513796846 -0.382683432365)
	I75 : dAve : 	(0.0973924003507 -0.0799278773557 -0.0490873852123) : omega : 	0.138840091817 : d : 	(0.714168536279 -0.586102970801 -0.382683432365)
	I76 : dAve : 	(0.0799278773557 -0.0973924003507 -0.0490873852123) : omega : 	0.138840091817 : d : 	(0.586102970801 -0.714168536279 -0.382683432365)
	I77 : dAve : 	(0.059391770858 -0.111114188018 -0.0490873852123) : omega : 	0.138840091817 : d : 	(0.435513796846 -0.814789005418 -0.382683432365)
	I78 : dAve : 	(0.0365732719135 -0.120565919754 -0.0490873852123) : omega : 	0.138840091817 : d : 	(0.268188071917 -0.884097590017 -0.382683432365)
	I79 : dAve : 	(0.0123492826399 -0.125384370808 -0.0490873852123) : omega : 	0.138840091817 : d : 	(0.0905560297858 -0.91943080004 -0.382683432365)
	I80 : dAve : 	(-0.0123492826399 -0.125384370808 -0.0490873852123) : omega : 	0.138840091817 : d : 	(-0.0905560297858 -0.91943080004 -0.382683432365)
	I81 : dAve : 	(-0.0365732719135 -0.120565919754 -0.0490873852123) : omega : 	0.138840091817 : d : 	(-0.268188071917 -0.884097590017 -0.382683432365)
	I82 : dAve : 	(-0.059391770858 -0.111114188018 -0.0490873852123) : omega : 	0.138840091817 : d : 	(-0.435513796846 -0.814789005418 -0.382683432365)
	I83 : dAve : 	(-0.0799278773557 -0.0973924003507 -0.0490873852123) : omega : 	0.138840091817 : d : 	(-0.586102970801 -0.714168536279 -0.382683432365)
	I84 : dAve : 	(-0.0973924003507 -0.0799278773557 -0.0490873852123) : omega : 	0.138840091817 : d : 	(-0.714168536279 -0.586102970801 -0.382683432365)
	I85 : dAve : 	(-0.111114188018 -0.059391770858 -0.0490873852123) : omega : 	0.138840091817 : d : 	(-0.814789005418 -0.435513796846 -0.382683432365)
	I86 : dAve : 	(-0.120565919754 -0.0365732719135 -0.0490873852123) : omega : 	0.138840091817 : d : 	(-0.884097590017 -0.268188071917 -0.382683432365)
	I87 : dAve : 	(-0.125384370808 -0.0123492826399 -0.0490873852123) : omega : 	0.138840091817 : d : 	(-0.91943080004 -0.0905560297858 -0.382683432365)
	I88 : dAve : 	(-0.125384370808 0.0123492826399 -0.0490873852123) : omega : 	0.138840091817 : d : 	(-0.91943080004 0.0905560297858 -0.382683432365)
	I89 : dAve : 	(-0.120565919754 0.0365732719135 -0.0490873852123) : omega : 	0.138840091817 : d : 	(-0.884097590017 0.268188071917 -0.382683432365)
	I90 : dAve : 	(-0.111114188018 0.059391770858 -0.0490873852123) : omega : 	0.138840091817 : d : 	(-0.814789005418 0.435513796846 -0.382683432365)
	I91 : dAve : 	(-0.0973924003507 0.0799278773557 -0.0490873852123) : omega : 	0.138840091817 : d : 	(-0.714168536279 0.586102970801 -0.382683432365)
	I92 : dAve : 	(-0.0799278773557 0.0973924003507 -0.0490873852123) : omega : 	0.138840091817 : d : 	(-0.586102970801 0.714168536279 -0.382683432365)
	I93 : dAve : 	(-0.059391770858 0.111114188018 -0.0490873852123) : omega : 	0.138840091817 : d : 	(-0.435513796846 0.814789005418 -0.382683432365)
	I94 : dAve : 	(-0.0365732719135 0.120565919754 -0.0490873852123) : omega : 	0.138840091817 : d : 	(-0.268188071917 0.884097590017 -0.382683432365)
	I95 : dAve : 	(-0.0123492826399 0.125384370808 -0.0490873852123) : omega : 	0.138840091817 : d : 	(-0.0905560297858 0.91943080004 -0.382683432365)
	I96 : dAve : 	(0.00274192284156 0.0278392098 -0.0490873852123) : omega : 	0.0575094490319 : d : 	(0.0375095356919 0.38084070704 -0.923879532511)
	I97 : dAve : 	(0.00812039796756 0.0267693645798 -0.0490873852123) : omega : 	0.0575094490319 : d : 	(0.111087136655 0.366205212247 -0.923879532511)
	I98 : dAve : 	(0.0131868107536 0.0246707876912 -0.0490873852123) : omega : 	0.0575094490319 : d : 	(0.180395721254 0.337496656517 -0.923879532511)
	I99 : dAve : 	(0.0177464617977 0.0216241262672 -0.0490873852123) : omega : 	0.0575094490319 : d : 	(0.242771799453 0.295818293547 -0.923879532511)
	I100 : dAve : 	(0.0216241262672 0.0177464617977 -0.0490873852123) : omega : 	0.0575094490319 : d : 	(0.295818293547 0.242771799453 -0.923879532511)
	I101 : dAve : 	(0.0246707876912 0.0131868107536 -0.0490873852123) : omega : 	0.0575094490319 : d : 	(0.337496656517 0.180395721254 -0.923879532511)
	I102 : dAve : 	(0.0267693645798 0.00812039796756 -0.0490873852123) : omega : 	0.0575094490319 : d : 	(0.366205212247 0.111087136655 -0.923879532511)
	I103 : dAve : 	(0.0278392098 0.00274192284156 -0.0490873852123) : omega : 	0.0575094490319 : d : 	(0.38084070704 0.0375095356919 -0.923879532511)
	I104 : dAve : 	(0.0278392098 -0.00274192284156 -0.0490873852123) : omega : 	0.0575094490319 : d : 	(0.38084070704 -0.0375095356919 -0.923879532511)
	I105 : dAve : 	(0.0267693645798 -0.00812039796756 -0.0490873852123) : omega : 	0.0575094490319 : d : 	(0.366205212247 -0.111087136655 -0.923879532511)
	I106 : dAve : 	(0.0246707876912 -0.0131868107536 -0.0490873852123) : omega : 	0.0575094490319 : d : 	(0.337496656517 -0.180395721254 -0.923879532511)
	I107 : dAve : 	(0.0216241262672 -0.0177464617977 -0.0490873852123) : omega : 	0.0575094490319 : d : 	(0.295818293547 -0.242771799453 -0.923879532511)
	I108 : dAve : 	(0.0177464617977 -0.0216241262672 -0.0490873852123) : omega : 	0.0575094490319 : d : 	(0.242771799453 -0.295818293547 -0.923879532511)
	I109 : dAve : 	(0.0131868107536 -0.0246707876912 -0.0490873852123) : omega : 	0.0575094490319 : d : 	(0.180395721254 -0.337496656517 -0.923879532511)
	I110 : dAve : 	(0.00812039796756 -0.0267693645798 -0.0490873852123) : omega : 	0.0575094490319 : d : 	(0.111087136655 -0.366205212247 -0.923879532511)
	I111 : dAve : 	(0.00274192284156 -0.0278392098 -0.0490873852123) : omega : 	0.0575094490319 : d : 	(0.0375095356919 -0.38084070704 -0.923879532511)
	I112 : dAve : 	(-0.00274192284156 -0.0278392098 -0.0490873852123) : omega : 	0.0575094490319 : d : 	(-0.0375095356919 -0.38084070704 -0.923879532511)
	I113 : dAve : 	(-0.00812039796756 -0.0267693645798 -0.0490873852123) : omega : 	0.0575094490319 : d : 	(-0.111087136655 -0.366205212247 -0.923879532511)
	I114 : dAve : 	(-0.0131868107536 -0.0246707876912 -0.0490873852123) : omega : 	0.0575094490319 : d : 	(-0.180395721254 -0.337496656517 -0.923879532511)
	I115 : dAve : 	(-0.0177464617977 -0.0216241262672 -0.0490873852123) : omega : 	0.0575094490319 : d : 	(-0.242771799453 -0.295818293547 -0.923879532511)
	I116 : dAve : 	(-0.0216241262672 -0.0177464617977 -0.0490873852123) : omega : 	0.0575094490319 : d : 	(-0.295818293547 -0.242771799453 -0.923879532511)
	I117 : dAve : 	(-0.0246707876912 -0.0131868107536 -0.0490873852123) : omega : 	0.0575094490319 : d : 	(-0.337496656517 -0.180395721254 -0.923879532511)
	I118 : dAve : 	(-0.0267693645798 -0.00812039796756 -0.0490873852123) : omega : 	0.0575094490319 : d : 	(-0.366205212247 -0.111087136655 -0.923879532511)
	I119 : dAve : 	(-0.0278392098 -0.00274192284156 -0.0490873852123) : omega : 	0.0575094490319 : d : 	(-0.38084070704 -0.0375095356919 -0.923879532511)
	I120 : dAve : 	(-0.0278392098 0.00274192284156 -0.0490873852123) : omega : 	0.0575094490319 : d : 	(-0.38084070704 0.0375095356919 -0.923879532511)
	I121 : dAve : 	(-0.0267693645798 0.00812039796756 -0.0490873852123) : omega : 	0.0575094490319 : d : 	(-0.366205212247 0.111087136655 -0.923879532511)
	I122 : dAve : 	(-0.0246707876912 0.0131868107536 -0.0490873852123) : omega : 	0.0575094490319 : d : 	(-0.337496656517 0.180395721254 -0.923879532511)
	I123 : dAve : 	(-0.0216241262672 0.0177464617977 -0.0490873852123) : omega : 	0.0575094490319 : d : 	(-0.295818293547 0.242771799453 -0.923879532511)
	I124 : dAve : 	(-0.0177464617977 0.0216241262672 -0.0490873852123) : omega : 	0.0575094490319 : d : 	(-0.242771799453 0.295818293547 -0.923879532511)
	I125 : dAve : 	(-0.0131868107536 0.0246707876912 -0.0490873852123) : omega : 	0.0575094490319 : d : 	(-0.180395721254 0.337496656517 -0.923879532511)
	I126 : dAve : 	(-0.00812039796756 0.0267693645798 -0.0490873852123) : omega : 	0.0575094490319 : d : 	(-0.111087136655 0.366205212247 -0.923879532511)
	I127 : dAve : 	(-0.00274192284156 0.0278392098 -0.0490873852123) : omega : 	0.0575094490319 : d : 	(-0.0375095356919 0.38084070704 -0.923879532511)
Total omega : 12.5663706144

Courant Number mean: 0 max: 0

Starting time loop

Sampled set:
    data -> csv

Sampled set:
    data -> csv

Sampled surface:
    yNormal -> ensight
        sampledCuttingPlane: yNormal : plane:(0 1 0) (0 0 0) offsets:(0)

Sampled surface:
    zNormal -> ensight
        sampledCuttingPlane: zNormal : plane:(0 0 1) (0 0 0) offsets:(0)

Sampled surface:
    patchAll -> ensight
        sampledPatch: patchAll : patches:(".*WW.*")

deltaT = 1
Time = 1

PIMPLE: iteration 1
Radiation solver iter: 0
DILUPBiCGStab:  Solving for ILambda_0_0, Initial residual = 1, Final residual = 1.30191919994e-73, No Iterations 3
DILUPBiCGStab:  Solving for ILambda_1_0, Initial residual = 1, Final residual = 4.05532537776e-73, No Iterations 3
DILUPBiCGStab:  Solving for ILambda_2_0, Initial residual = 1, Final residual = 6.42668630904e-73, No Iterations 3
DILUPBiCGStab:  Solving for ILambda_3_0, Initial residual = 1, Final residual = 9.04277407766e-73, No Iterations 3
DILUPBiCGStab:  Solving for ILambda_4_0, Initial residual = 1, Final residual = 3.39369267411e-74, No Iterations 3
DILUPBiCGStab:  Solving for ILambda_5_0, Initial residual = 1, Final residual = 8.33219263787e-73, No Iterations 3
DILUPBiCGStab:  Solving for ILambda_6_0, Initial residual = 1, Final residual = 2.86316155859e-72, No Iterations 3
DILUPBiCGStab:  Solving for ILambda_7_0, Initial residual = 1, Final residual = 8.41178750286e-74, No Iterations 3
DILUPBiCGStab:  Solving for ILambda_8_0, Initial residual = 1, Final residual = 2.04092574423e-61, No Iterations 54
DILUPBiCGStab:  Solving for ILambda_9_0, Initial residual = 1, Final residual = 2.84956395602e-61, No Iterations 82
DILUPBiCGStab:  Solving for ILambda_10_0, Initial residual = 1, Final residual = 6.67274912337e-61, No Iterations 96
DILUPBiCGStab:  Solving for ILambda_11_0, Initial residual = 1, Final residual = 6.51232319277e-61, No Iterations 101
DILUPBiCGStab:  Solving for ILambda_12_0, Initial residual = 1, Final residual = 8.77862505285e-61, No Iterations 104
DILUPBiCGStab:  Solving for ILambda_13_0, Initial residual = 1, Final residual = 3.03745115794e-61, No Iterations 99
DILUPBiCGStab:  Solving for ILambda_14_0, Initial residual = 1, Final residual = 4.17450079428e-61, No Iterations 80
DILUPBiCGStab:  Solving for ILambda_15_0, Initial residual = 1, Final residual = 3.36591997125e-61, No Iterations 52
DILUPBiCGStab:  Solving for ILambda_16_0, Initial residual = 1, Final residual = 8.57514082494e-61, No Iterations 32
DILUPBiCGStab:  Solving for ILambda_17_0, Initial residual = 1, Final residual = 1.31113175683e-61, No Iterations 34
DILUPBiCGStab:  Solving for ILambda_18_0, Initial residual = 1, Final residual = 1.03840588575e-61, No Iterations 34
DILUPBiCGStab:  Solving for ILambda_19_0, Initial residual = 1, Final residual = 1.44121090716e-61, No Iterations 34
DILUPBiCGStab:  Solving for ILambda_20_0, Initial residual = 1, Final residual = 3.38784323173e-62, No Iterations 35
DILUPBiCGStab:  Solving for ILambda_21_0, Initial residual = 1, Final residual = 5.61966085693e-61, No Iterations 34
DILUPBiCGStab:  Solving for ILambda_22_0, Initial residual = 1, Final residual = 1.8615969654e-61, No Iterations 33
DILUPBiCGStab:  Solving for ILambda_23_0, Initial residual = 1, Final residual = 9.13914953849e-62, No Iterations 33
DILUPBiCGStab:  Solving for ILambda_24_0, Initial residual = 1, Final residual = 1.17310444747e-61, No Iterations 52
DILUPBiCGStab:  Solving for ILambda_25_0, Initial residual = 1, Final residual = 9.09642995373e-61, No Iterations 80
DILUPBiCGStab:  Solving for ILambda_26_0, Initial residual = 1, Final residual = 2.31159196272e-61, No Iterations 96
DILUPBiCGStab:  Solving for ILambda_27_0, Initial residual = 1, Final residual = 3.84889323709e-61, No Iterations 101
DILUPBiCGStab:  Solving for ILambda_28_0, Initial residual = 1, Final residual = 7.30425425237e-61, No Iterations 99
DILUPBiCGStab:  Solving for ILambda_29_0, Initial residual = 1, Final residual = 9.22579939092e-61, No Iterations 96
DILUPBiCGStab:  Solving for ILambda_30_0, Initial residual = 1, Final residual = 8.7861172564e-61, No Iterations 82
DILUPBiCGStab:  Solving for ILambda_31_0, Initial residual = 1, Final residual = 3.0131485936e-61, No Iterations 54
DILUPBiCGStab:  Solving for ILambda_32_0, Initial residual = 1, Final residual = 5.18625302901e-72, No Iterations 3
DILUPBiCGStab:  Solving for ILambda_33_0, Initial residual = 1, Final residual = 1.9171452568e-72, No Iterations 3
DILUPBiCGStab:  Solving for ILambda_34_0, Initial residual = 1, Final residual = 6.38262185924e-73, No Iterations 3
DILUPBiCGStab:  Solving for ILambda_35_0, Initial residual = 1, Final residual = 2.5599162342e-73, No Iterations 3
DILUPBiCGStab:  Solving for ILambda_36_0, Initial residual = 1, Final residual = 2.34819191151e-72, No Iterations 3
DILUPBiCGStab:  Solving for ILambda_37_0, Initial residual = 1, Final residual = 4.50471988347e-72, No Iterations 3
DILUPBiCGStab:  Solving for ILambda_38_0, Initial residual = 1, Final residual = 3.51673671052e-73, No Iterations 3
DILUPBiCGStab:  Solving for ILambda_39_0, Initial residual = 1, Final residual = 1.0932771084e-71, No Iterations 3
DILUPBiCGStab:  Solving for ILambda_40_0, Initial residual = 1, Final residual = 8.33287304343e-61, No Iterations 56
DILUPBiCGStab:  Solving for ILambda_41_0, Initial residual = 1, Final residual = 4.39663481855e-61, No Iterations 80
DILUPBiCGStab:  Solving for ILambda_42_0, Initial residual = 1, Final residual = 6.83168010433e-61, No Iterations 94
DILUPBiCGStab:  Solving for ILambda_43_0, Initial residual = 1, Final residual = 5.21651013203e-61, No Iterations 108
DILUPBiCGStab:  Solving for ILambda_44_0, Initial residual = 1, Final residual = 3.04650289434e-61, No Iterations 109
DILUPBiCGStab:  Solving for ILambda_45_0, Initial residual = 1, Final residual = 5.57592008782e-61, No Iterations 98
DILUPBiCGStab:  Solving for ILambda_46_0, Initial residual = 1, Final residual = 2.84349423411e-61, No Iterations 77
DILUPBiCGStab:  Solving for ILambda_47_0, Initial residual = 1, Final residual = 3.63354405615e-61, No Iterations 54
DILUPBiCGStab:  Solving for ILambda_48_0, Initial residual = 1, Final residual = 6.24341635989e-61, No Iterations 40
DILUPBiCGStab:  Solving for ILambda_49_0, Initial residual = 1, Final residual = 9.06500354025e-62, No Iterations 41
DILUPBiCGStab:  Solving for ILambda_50_0, Initial residual = 1, Final residual = 1.5614139306e-62, No Iterations 44
DILUPBiCGStab:  Solving for ILambda_51_0, Initial residual = 1, Final residual = 6.09684672765e-62, No Iterations 42
DILUPBiCGStab:  Solving for ILambda_52_0, Initial residual = 1, Final residual = 5.61657317396e-62, No Iterations 44
DILUPBiCGStab:  Solving for ILambda_53_0, Initial residual = 1, Final residual = 2.41224336583e-61, No Iterations 44
DILUPBiCGStab:  Solving for ILambda_54_0, Initial residual = 1, Final residual = 5.27078545249e-61, No Iterations 43
DILUPBiCGStab:  Solving for ILambda_55_0, Initial residual = 1, Final residual = 8.80054986425e-61, No Iterations 40
DILUPBiCGStab:  Solving for ILambda_56_0, Initial residual = 1, Final residual = 5.28109298168e-61, No Iterations 54
DILUPBiCGStab:  Solving for ILambda_57_0, Initial residual = 1, Final residual = 1.94771944137e-61, No Iterations 79
DILUPBiCGStab:  Solving for ILambda_58_0, Initial residual = 1, Final residual = 2.3580915911e-61, No Iterations 97
DILUPBiCGStab:  Solving for ILambda_59_0, Initial residual = 1, Final residual = 9.20560952939e-61, No Iterations 106
DILUPBiCGStab:  Solving for ILambda_60_0, Initial residual = 1, Final residual = 5.80065209485e-61, No Iterations 106
DILUPBiCGStab:  Solving for ILambda_61_0, Initial residual = 1, Final residual = 8.37968735709e-61, No Iterations 94
DILUPBiCGStab:  Solving for ILambda_62_0, Initial residual = 1, Final residual = 1.3586190696e-61, No Iterations 80
DILUPBiCGStab:  Solving for ILambda_63_0, Initial residual = 1, Final residual = 2.73841827775e-61, No Iterations 56
DILUPBiCGStab:  Solving for ILambda_64_0, Initial residual = 1, Final residual = 5.84857756352e-61, No Iterations 38
DILUPBiCGStab:  Solving for ILambda_65_0, Initial residual = 1, Final residual = 6.20491118295e-61, No Iterations 39
DILUPBiCGStab:  Solving for ILambda_66_0, Initial residual = 1, Final residual = 3.32219138942e-61, No Iterations 40
DILUPBiCGStab:  Solving for ILambda_67_0, Initial residual = 1, Final residual = 2.09974490578e-61, No Iterations 43
DILUPBiCGStab:  Solving for ILambda_68_0, Initial residual = 1, Final residual = 2.93643773311e-62, No Iterations 43
DILUPBiCGStab:  Solving for ILambda_69_0, Initial residual = 1, Final residual = 4.6559242202e-61, No Iterations 40
DILUPBiCGStab:  Solving for ILambda_70_0, Initial residual = 1, Final residual = 7.46463106904e-62, No Iterations 39
DILUPBiCGStab:  Solving for ILambda_71_0, Initial residual = 1, Final residual = 1.31574066923e-61, No Iterations 40
DILUPBiCGStab:  Solving for ILambda_72_0, Initial residual = 1, Final residual = 5.82375679167e-61, No Iterations 54
DILUPBiCGStab:  Solving for ILambda_73_0, Initial residual = 1, Final residual = 2.76525616513e-61, No Iterations 78
DILUPBiCGStab:  Solving for ILambda_74_0, Initial residual = 1, Final residual = 4.67083922873e-61, No Iterations 96
DILUPBiCGStab:  Solving for ILambda_75_0, Initial residual = 1, Final residual = 4.15134287458e-61, No Iterations 106
DILUPBiCGStab:  Solving for ILambda_76_0, Initial residual = 1, Final residual = 4.74679852223e-61, No Iterations 106
DILUPBiCGStab:  Solving for ILambda_77_0, Initial residual = 1, Final residual = 9.18112179458e-62, No Iterations 96
DILUPBiCGStab:  Solving for ILambda_78_0, Initial residual = 1, Final residual = 2.36906413051e-61, No Iterations 83
DILUPBiCGStab:  Solving for ILambda_79_0, Initial residual = 1, Final residual = 6.88212359427e-61, No Iterations 56
DILUPBiCGStab:  Solving for ILambda_80_0, Initial residual = 1, Final residual = 7.91736985384e-72, No Iterations 3
DILUPBiCGStab:  Solving for ILambda_81_0, Initial residual = 1, Final residual = 3.20380405754e-72, No Iterations 3
DILUPBiCGStab:  Solving for ILambda_82_0, Initial residual = 1, Final residual = 3.46134199443e-72, No Iterations 3
DILUPBiCGStab:  Solving for ILambda_83_0, Initial residual = 1, Final residual = 5.65021639564e-70, No Iterations 3
DILUPBiCGStab:  Solving for ILambda_84_0, Initial residual = 1, Final residual = 1.83646854901e-72, No Iterations 3
DILUPBiCGStab:  Solving for ILambda_85_0, Initial residual = 1, Final residual = 3.62910907363e-72, No Iterations 3
DILUPBiCGStab:  Solving for ILambda_86_0, Initial residual = 1, Final residual = 1.02336402219e-72, No Iterations 3
DILUPBiCGStab:  Solving for ILambda_87_0, Initial residual = 1, Final residual = 8.23760118532e-72, No Iterations 3
DILUPBiCGStab:  Solving for ILambda_88_0, Initial residual = 1, Final residual = 7.53780230531e-61, No Iterations 57
DILUPBiCGStab:  Solving for ILambda_89_0, Initial residual = 1, Final residual = 3.62260990464e-61, No Iterations 80
DILUPBiCGStab:  Solving for ILambda_90_0, Initial residual = 1, Final residual = 9.62946203109e-61, No Iterations 96
DILUPBiCGStab:  Solving for ILambda_91_0, Initial residual = 1, Final residual = 3.62845544805e-61, No Iterations 108
DILUPBiCGStab:  Solving for ILambda_92_0, Initial residual = 1, Final residual = 6.59128274001e-61, No Iterations 105
DILUPBiCGStab:  Solving for ILambda_93_0, Initial residual = 1, Final residual = 6.72622581919e-61, No Iterations 97
DILUPBiCGStab:  Solving for ILambda_94_0, Initial residual = 1, Final residual = 5.34227569117e-61, No Iterations 78
DILUPBiCGStab:  Solving for ILambda_95_0, Initial residual = 1, Final residual = 3.42410286659e-61, No Iterations 54
DILUPBiCGStab:  Solving for ILambda_96_0, Initial residual = 1, Final residual = 4.34423938205e-61, No Iterations 31
DILUPBiCGStab:  Solving for ILambda_97_0, Initial residual = 1, Final residual = 1.52110950307e-62, No Iterations 32
DILUPBiCGStab:  Solving for ILambda_98_0, Initial residual = 1, Final residual = 8.12346460248e-61, No Iterations 34
DILUPBiCGStab:  Solving for ILambda_99_0, Initial residual = 1, Final residual = 8.47852958868e-61, No Iterations 34
DILUPBiCGStab:  Solving for ILambda_100_0, Initial residual = 1, Final residual = 9.58536816852e-61, No Iterations 35
DILUPBiCGStab:  Solving for ILambda_101_0, Initial residual = 1, Final residual = 1.64754276041e-61, No Iterations 34
DILUPBiCGStab:  Solving for ILambda_102_0, Initial residual = 1, Final residual = 3.60768337478e-61, No Iterations 33
DILUPBiCGStab:  Solving for ILambda_103_0, Initial residual = 1, Final residual = 5.58437017726e-62, No Iterations 32
DILUPBiCGStab:  Solving for ILambda_104_0, Initial residual = 1, Final residual = 4.43803559434e-61, No Iterations 52
DILUPBiCGStab:  Solving for ILambda_105_0, Initial residual = 1, Final residual = 9.49535863641e-61, No Iterations 79
DILUPBiCGStab:  Solving for ILambda_106_0, Initial residual = 1, Final residual = 1.9034961548e-61, No Iterations 96
DILUPBiCGStab:  Solving for ILambda_107_0, Initial residual = 1, Final residual = 3.59902601712e-61, No Iterations 100
DILUPBiCGStab:  Solving for ILambda_108_0, Initial residual = 1, Final residual = 2.0847226936e-61, No Iterations 100
DILUPBiCGStab:  Solving for ILambda_109_0, Initial residual = 1, Final residual = 2.27016229683e-61, No Iterations 97
DILUPBiCGStab:  Solving for ILambda_110_0, Initial residual = 1, Final residual = 3.31427331362e-61, No Iterations 83
DILUPBiCGStab:  Solving for ILambda_111_0, Initial residual = 1, Final residual = 3.89767324284e-61, No Iterations 54
DILUPBiCGStab:  Solving for ILambda_112_0, Initial residual = 1, Final residual = 5.01945816485e-72, No Iterations 3
DILUPBiCGStab:  Solving for ILambda_113_0, Initial residual = 1, Final residual = 9.41529450792e-73, No Iterations 3
DILUPBiCGStab:  Solving for ILambda_114_0, Initial residual = 1, Final residual = 1.89790894301e-72, No Iterations 3
DILUPBiCGStab:  Solving for ILambda_115_0, Initial residual = 1, Final residual = 6.91092867786e-72, No Iterations 3
DILUPBiCGStab:  Solving for ILambda_116_0, Initial residual = 1, Final residual = 4.74378712783e-73, No Iterations 3
DILUPBiCGStab:  Solving for ILambda_117_0, Initial residual = 1, Final residual = 8.51239652148e-74, No Iterations 3
DILUPBiCGStab:  Solving for ILambda_118_0, Initial residual = 1, Final residual = 4.69814086302e-73, No Iterations 3
DILUPBiCGStab:  Solving for ILambda_119_0, Initial residual = 1, Final residual = 5.25585529207e-73, No Iterations 3
DILUPBiCGStab:  Solving for ILambda_120_0, Initial residual = 1, Final residual = 2.02629729828e-61, No Iterations 54
DILUPBiCGStab:  Solving for ILambda_121_0, Initial residual = 1, Final residual = 3.01474293094e-62, No Iterations 84
DILUPBiCGStab:  Solving for ILambda_122_0, Initial residual = 1, Final residual = 8.59361515923e-61, No Iterations 96
DILUPBiCGStab:  Solving for ILambda_123_0, Initial residual = 1, Final residual = 9.40695943513e-61, No Iterations 103
DILUPBiCGStab:  Solving for ILambda_124_0, Initial residual = 1, Final residual = 4.64367507825e-61, No Iterations 100
DILUPBiCGStab:  Solving for ILambda_125_0, Initial residual = 1, Final residual = 4.62387249066e-61, No Iterations 96
DILUPBiCGStab:  Solving for ILambda_126_0, Initial residual = 1, Final residual = 4.13383998207e-61, No Iterations 80
DILUPBiCGStab:  Solving for ILambda_127_0, Initial residual = 1, Final residual = 5.12250759386e-61, No Iterations 51
Radiation solver iter: 1
DILUPBiCGStab:  Solving for ILambda_0_0, Initial residual = 1.74886142165e-16, Final residual = 4.12950934596e-62, No Iterations 2
DILUPBiCGStab:  Solving for ILambda_1_0, Initial residual = 1.85471169973e-16, Final residual = 7.77744656502e-62, No Iterations 2
DILUPBiCGStab:  Solving for ILambda_2_0, Initial residual = 1.775483115e-16, Final residual = 7.85131939632e-61, No Iterations 2
DILUPBiCGStab:  Solving for ILambda_3_0, Initial residual = 1.95431875742e-16, Final residual = 2.28653052666e-62, No Iterations 2
DILUPBiCGStab:  Solving for ILambda_4_0, Initial residual = 1.94329991004e-16, Final residual = 2.23966620847e-62, No Iterations 2
DILUPBiCGStab:  Solving for ILambda_5_0, Initial residual = 2.01272548942e-16, Final residual = 5.16258992629e-62, No Iterations 2
DILUPBiCGStab:  Solving for ILambda_6_0, Initial residual = 2.09907215693e-16, Final residual = 9.27618130916e-62, No Iterations 2
DILUPBiCGStab:  Solving for ILambda_7_0, Initial residual = 1.87787175927e-16, Final residual = 2.84874931034e-62, No Iterations 2
DILUPBiCGStab:  Solving for ILambda_8_0, Initial residual = 5.46952865132e-16, Final residual = 1.71775975693e-61, No Iterations 38
DILUPBiCGStab:  Solving for ILambda_9_0, Initial residual = 3.59515918848e-15, Final residual = 6.97164173438e-61, No Iterations 55
DILUPBiCGStab:  Solving for ILambda_10_0, Initial residual = 4.51780638781e-14, Final residual = 6.89412427028e-61, No Iterations 66
DILUPBiCGStab:  Solving for ILambda_11_0, Initial residual = 2.5727188065e-13, Final residual = 3.42452093742e-61, No Iterations 71
DILUPBiCGStab:  Solving for ILambda_12_0, Initial residual = 1.82137820774e-14, Final residual = 3.25496448129e-61, No Iterations 69
DILUPBiCGStab:  Solving for ILambda_13_0, Initial residual = 8.06990574096e-14, Final residual = 2.49304556876e-61, No Iterations 62
DILUPBiCGStab:  Solving for ILambda_14_0, Initial residual = 1.97371366453e-14, Final residual = 9.52578200361e-61, No Iterations 53
DILUPBiCGStab:  Solving for ILambda_15_0, Initial residual = 8.01214457584e-16, Final residual = 4.14500285601e-61, No Iterations 38
DILUPBiCGStab:  Solving for ILambda_16_0, Initial residual = 6.87079096555e-16, Final residual = 7.95728329279e-62, No Iterations 20
DILUPBiCGStab:  Solving for ILambda_17_0, Initial residual = 7.80181749842e-16, Final residual = 5.37712152175e-61, No Iterations 19
DILUPBiCGStab:  Solving for ILambda_18_0, Initial residual = 8.68229512733e-16, Final residual = 4.57887207259e-62, No Iterations 20
DILUPBiCGStab:  Solving for ILambda_19_0, Initial residual = 9.31816373443e-16, Final residual = 1.18314204533e-61, No Iterations 20
DILUPBiCGStab:  Solving for ILambda_20_0, Initial residual = 9.090122924e-16, Final residual = 9.86463523604e-61, No Iterations 20
DILUPBiCGStab:  Solving for ILambda_21_0, Initial residual = 8.27185209117e-16, Final residual = 7.42342334407e-62, No Iterations 21
DILUPBiCGStab:  Solving for ILambda_22_0, Initial residual = 7.28954923109e-16, Final residual = 2.51877047332e-61, No Iterations 20
DILUPBiCGStab:  Solving for ILambda_23_0, Initial residual = 6.37559016327e-16, Final residual = 4.35644682062e-62, No Iterations 19
DILUPBiCGStab:  Solving for ILambda_24_0, Initial residual = 7.99335224243e-16, Final residual = 3.91723219047e-61, No Iterations 38
DILUPBiCGStab:  Solving for ILambda_25_0, Initial residual = 1.92588825524e-14, Final residual = 2.28594422124e-61, No Iterations 54
DILUPBiCGStab:  Solving for ILambda_26_0, Initial residual = 7.82241166173e-14, Final residual = 6.75244662822e-61, No Iterations 62
DILUPBiCGStab:  Solving for ILambda_27_0, Initial residual = 2.65757031865e-14, Final residual = 5.65525774316e-61, No Iterations 72
DILUPBiCGStab:  Solving for ILambda_28_0, Initial residual = 5.90839762265e-13, Final residual = 5.85270498644e-61, No Iterations 67
DILUPBiCGStab:  Solving for ILambda_29_0, Initial residual = 5.45407018952e-14, Final residual = 4.41779167284e-61, No Iterations 63
DILUPBiCGStab:  Solving for ILambda_30_0, Initial residual = 3.62128188309e-15, Final residual = 8.25304245058e-61, No Iterations 55
DILUPBiCGStab:  Solving for ILambda_31_0, Initial residual = 5.40321990203e-16, Final residual = 3.66549005427e-62, No Iterations 39
DILUPBiCGStab:  Solving for ILambda_32_0, Initial residual = 7.37609453783e-16, Final residual = 2.22379778802e-75, No Iterations 2
DILUPBiCGStab:  Solving for ILambda_33_0, Initial residual = 7.49884295961e-16, Final residual = 4.12403041881e-75, No Iterations 2
DILUPBiCGStab:  Solving for ILambda_34_0, Initial residual = 7.72331548714e-16, Final residual = 3.13224581349e-61, No Iterations 2
DILUPBiCGStab:  Solving for ILambda_35_0, Initial residual = 8.12237299002e-16, Final residual = 1.54111868562e-75, No Iterations 2
DILUPBiCGStab:  Solving for ILambda_36_0, Initial residual = 8.07451134554e-16, Final residual = 9.00979473262e-61, No Iterations 2
DILUPBiCGStab:  Solving for ILambda_37_0, Initial residual = 8.68744317634e-16, Final residual = 1.2840923961e-75, No Iterations 2
DILUPBiCGStab:  Solving for ILambda_38_0, Initial residual = 8.4860523149e-16, Final residual = 6.64656553134e-76, No Iterations 2
DILUPBiCGStab:  Solving for ILambda_39_0, Initial residual = 8.21436228636e-16, Final residual = 1.10723920724e-75, No Iterations 2
DILUPBiCGStab:  Solving for ILambda_40_0, Initial residual = 9.82594271268e-15, Final residual = 6.43952609509e-61, No Iterations 41
DILUPBiCGStab:  Solving for ILambda_41_0, Initial residual = 1.14626222149e-14, Final residual = 1.87065497154e-61, No Iterations 63
DILUPBiCGStab:  Solving for ILambda_42_0, Initial residual = 6.90806815159e-14, Final residual = 9.28960932923e-61, No Iterations 70
DILUPBiCGStab:  Solving for ILambda_43_0, Initial residual = 6.74014322882e-14, Final residual = 3.74720561445e-61, No Iterations 78
DILUPBiCGStab:  Solving for ILambda_44_0, Initial residual = 1.09858393355e-13, Final residual = 3.93440695521e-61, No Iterations 74
DILUPBiCGStab:  Solving for ILambda_45_0, Initial residual = 4.59808727183e-14, Final residual = 9.00301704969e-61, No Iterations 68
DILUPBiCGStab:  Solving for ILambda_46_0, Initial residual = 2.79969139994e-14, Final residual = 6.31347473152e-61, No Iterations 58
DILUPBiCGStab:  Solving for ILambda_47_0, Initial residual = 6.20271926389e-15, Final residual = 3.11509985374e-63, No Iterations 42
DILUPBiCGStab:  Solving for ILambda_48_0, Initial residual = 5.75027352701e-15, Final residual = 1.56687274427e-61, No Iterations 27
DILUPBiCGStab:  Solving for ILambda_49_0, Initial residual = 1.82379073536e-14, Final residual = 1.00545148718e-61, No Iterations 25
DILUPBiCGStab:  Solving for ILambda_50_0, Initial residual = 2.18510456231e-14, Final residual = 4.11517550248e-61, No Iterations 30
DILUPBiCGStab:  Solving for ILambda_51_0, Initial residual = 2.35703641013e-14, Final residual = 1.14127392462e-61, No Iterations 27
DILUPBiCGStab:  Solving for ILambda_52_0, Initial residual = 2.31504578922e-14, Final residual = 5.01801262603e-62, No Iterations 27
DILUPBiCGStab:  Solving for ILambda_53_0, Initial residual = 2.00801773117e-14, Final residual = 3.97721606141e-61, No Iterations 30
DILUPBiCGStab:  Solving for ILambda_54_0, Initial residual = 1.68713714682e-14, Final residual = 5.37218913597e-61, No Iterations 25
DILUPBiCGStab:  Solving for ILambda_55_0, Initial residual = 5.46073086671e-15, Final residual = 7.63946111319e-61, No Iterations 25
DILUPBiCGStab:  Solving for ILambda_56_0, Initial residual = 6.22405303223e-15, Final residual = 8.28362032137e-62, No Iterations 40
DILUPBiCGStab:  Solving for ILambda_57_0, Initial residual = 2.79898443549e-14, Final residual = 9.39223923193e-61, No Iterations 58
DILUPBiCGStab:  Solving for ILambda_58_0, Initial residual = 4.45819688784e-14, Final residual = 5.16891725119e-61, No Iterations 67
DILUPBiCGStab:  Solving for ILambda_59_0, Initial residual = 1.20435289404e-13, Final residual = 9.45068149655e-61, No Iterations 74
DILUPBiCGStab:  Solving for ILambda_60_0, Initial residual = 6.94024680608e-14, Final residual = 2.89714424998e-61, No Iterations 75
DILUPBiCGStab:  Solving for ILambda_61_0, Initial residual = 6.78152224486e-14, Final residual = 3.35319652638e-61, No Iterations 73
DILUPBiCGStab:  Solving for ILambda_62_0, Initial residual = 1.13148728259e-14, Final residual = 2.47583513047e-61, No Iterations 59
DILUPBiCGStab:  Solving for ILambda_63_0, Initial residual = 9.92734066769e-15, Final residual = 7.18511547696e-61, No Iterations 42
DILUPBiCGStab:  Solving for ILambda_64_0, Initial residual = 3.75506057774e-14, Final residual = 1.2737552969e-61, No Iterations 24
DILUPBiCGStab:  Solving for ILambda_65_0, Initial residual = 8.76932478664e-14, Final residual = 8.329857936e-62, No Iterations 23
DILUPBiCGStab:  Solving for ILambda_66_0, Initial residual = 6.74943871201e-15, Final residual = 5.81722091514e-61, No Iterations 22
DILUPBiCGStab:  Solving for ILambda_67_0, Initial residual = 6.98592107361e-15, Final residual = 3.02243149904e-62, No Iterations 25
DILUPBiCGStab:  Solving for ILambda_68_0, Initial residual = 7.19377312747e-15, Final residual = 6.94613173143e-61, No Iterations 26
DILUPBiCGStab:  Solving for ILambda_69_0, Initial residual = 7.1050658186e-15, Final residual = 6.25396554807e-61, No Iterations 25
DILUPBiCGStab:  Solving for ILambda_70_0, Initial residual = 9.53284427846e-14, Final residual = 2.9196694366e-61, No Iterations 25
DILUPBiCGStab:  Solving for ILambda_71_0, Initial residual = 4.04807173394e-14, Final residual = 3.69379730421e-61, No Iterations 27
DILUPBiCGStab:  Solving for ILambda_72_0, Initial residual = 5.24834536425e-14, Final residual = 1.21317782053e-61, No Iterations 40
DILUPBiCGStab:  Solving for ILambda_73_0, Initial residual = 3.81190544028e-14, Final residual = 3.20432290295e-61, No Iterations 57
DILUPBiCGStab:  Solving for ILambda_74_0, Initial residual = 3.03467889831e-14, Final residual = 3.01038700953e-61, No Iterations 69
DILUPBiCGStab:  Solving for ILambda_75_0, Initial residual = 6.51108188015e-14, Final residual = 4.28976453413e-61, No Iterations 73
DILUPBiCGStab:  Solving for ILambda_76_0, Initial residual = 2.73962800275e-13, Final residual = 8.39257539049e-61, No Iterations 75
DILUPBiCGStab:  Solving for ILambda_77_0, Initial residual = 2.97564142834e-14, Final residual = 5.06496157532e-61, No Iterations 72
DILUPBiCGStab:  Solving for ILambda_78_0, Initial residual = 1.51979566254e-14, Final residual = 8.62613850013e-61, No Iterations 59
DILUPBiCGStab:  Solving for ILambda_79_0, Initial residual = 1.53114830032e-14, Final residual = 3.29527416116e-61, No Iterations 42
DILUPBiCGStab:  Solving for ILambda_80_0, Initial residual = 9.02403703308e-16, Final residual = 9.77513925119e-74, No Iterations 2
DILUPBiCGStab:  Solving for ILambda_81_0, Initial residual = 8.29450036259e-16, Final residual = 3.71790295279e-61, No Iterations 2
DILUPBiCGStab:  Solving for ILambda_82_0, Initial residual = 8.60751329955e-16, Final residual = 4.63675042612e-61, No Iterations 2
DILUPBiCGStab:  Solving for ILambda_83_0, Initial residual = 8.33981220168e-16, Final residual = 4.87613670827e-75, No Iterations 2
DILUPBiCGStab:  Solving for ILambda_84_0, Initial residual = 8.08291070448e-16, Final residual = 9.51755227692e-75, No Iterations 2
DILUPBiCGStab:  Solving for ILambda_85_0, Initial residual = 7.78265019365e-16, Final residual = 4.24233228315e-74, No Iterations 2
DILUPBiCGStab:  Solving for ILambda_86_0, Initial residual = 7.44956300979e-16, Final residual = 2.66046423137e-61, No Iterations 2
DILUPBiCGStab:  Solving for ILambda_87_0, Initial residual = 7.44276806098e-16, Final residual = 9.96423397716e-61, No Iterations 2
DILUPBiCGStab:  Solving for ILambda_88_0, Initial residual = 1.5184374121e-14, Final residual = 4.160280805e-61, No Iterations 40
DILUPBiCGStab:  Solving for ILambda_89_0, Initial residual = 1.54208080019e-14, Final residual = 5.98138905844e-61, No Iterations 60
DILUPBiCGStab:  Solving for ILambda_90_0, Initial residual = 3.0026895948e-14, Final residual = 2.16806078301e-61, No Iterations 70
DILUPBiCGStab:  Solving for ILambda_91_0, Initial residual = 1.6780432198e-13, Final residual = 3.2673688414e-61, No Iterations 73
DILUPBiCGStab:  Solving for ILambda_92_0, Initial residual = 8.23520822225e-14, Final residual = 5.43897531442e-61, No Iterations 74
DILUPBiCGStab:  Solving for ILambda_93_0, Initial residual = 2.99291880938e-14, Final residual = 3.61315838687e-61, No Iterations 68
DILUPBiCGStab:  Solving for ILambda_94_0, Initial residual = 3.88192228474e-14, Final residual = 5.58514719685e-61, No Iterations 59
DILUPBiCGStab:  Solving for ILambda_95_0, Initial residual = 5.2595289866e-14, Final residual = 4.22160762091e-62, No Iterations 41
DILUPBiCGStab:  Solving for ILambda_96_0, Initial residual = 2.05817690285e-14, Final residual = 2.89427467917e-61, No Iterations 20
DILUPBiCGStab:  Solving for ILambda_97_0, Initial residual = 1.26844997926e-15, Final residual = 2.08257666204e-61, No Iterations 21
DILUPBiCGStab:  Solving for ILambda_98_0, Initial residual = 1.19199469561e-15, Final residual = 1.30320734739e-61, No Iterations 21
DILUPBiCGStab:  Solving for ILambda_99_0, Initial residual = 1.19234986681e-15, Final residual = 1.02203231604e-61, No Iterations 20
DILUPBiCGStab:  Solving for ILambda_100_0, Initial residual = 1.21614674035e-15, Final residual = 2.18453110599e-62, No Iterations 21
DILUPBiCGStab:  Solving for ILambda_101_0, Initial residual = 1.22626147119e-15, Final residual = 1.16555359316e-61, No Iterations 22
DILUPBiCGStab:  Solving for ILambda_102_0, Initial residual = 1.32300415119e-15, Final residual = 3.97014156346e-62, No Iterations 21
DILUPBiCGStab:  Solving for ILambda_103_0, Initial residual = 2.18003325391e-14, Final residual = 8.87566352126e-61, No Iterations 21
DILUPBiCGStab:  Solving for ILambda_104_0, Initial residual = 1.48840430348e-15, Final residual = 1.58636119287e-61, No Iterations 39
DILUPBiCGStab:  Solving for ILambda_105_0, Initial residual = 1.08139874575e-15, Final residual = 9.91761337326e-61, No Iterations 58
DILUPBiCGStab:  Solving for ILambda_106_0, Initial residual = 7.88354745032e-15, Final residual = 1.86849683674e-61, No Iterations 67
DILUPBiCGStab:  Solving for ILambda_107_0, Initial residual = 1.70288525479e-13, Final residual = 6.2544809453e-61, No Iterations 68
DILUPBiCGStab:  Solving for ILambda_108_0, Initial residual = 2.77653705527e-14, Final residual = 9.08314624424e-62, No Iterations 73
DILUPBiCGStab:  Solving for ILambda_109_0, Initial residual = 2.29042557201e-14, Final residual = 5.13559600546e-61, No Iterations 66
DILUPBiCGStab:  Solving for ILambda_110_0, Initial residual = 3.28479709737e-15, Final residual = 2.81151086949e-61, No Iterations 56
DILUPBiCGStab:  Solving for ILambda_111_0, Initial residual = 6.96020113863e-16, Final residual = 2.95661603935e-61, No Iterations 41
DILUPBiCGStab:  Solving for ILambda_112_0, Initial residual = 1.92814533014e-16, Final residual = 3.46623512793e-62, No Iterations 2
DILUPBiCGStab:  Solving for ILambda_113_0, Initial residual = 2.02048091733e-16, Final residual = 9.90376131161e-62, No Iterations 2
DILUPBiCGStab:  Solving for ILambda_114_0, Initial residual = 1.99883922633e-16, Final residual = 5.73976481211e-62, No Iterations 2
DILUPBiCGStab:  Solving for ILambda_115_0, Initial residual = 1.96942574888e-16, Final residual = 1.01867063523e-61, No Iterations 2
DILUPBiCGStab:  Solving for ILambda_116_0, Initial residual = 1.96714405334e-16, Final residual = 2.73740264357e-61, No Iterations 2
DILUPBiCGStab:  Solving for ILambda_117_0, Initial residual = 1.7743197477e-16, Final residual = 4.93915976799e-62, No Iterations 2
DILUPBiCGStab:  Solving for ILambda_118_0, Initial residual = 1.82961368612e-16, Final residual = 9.5459905045e-62, No Iterations 2
DILUPBiCGStab:  Solving for ILambda_119_0, Initial residual = 1.77403230505e-16, Final residual = 6.44899597699e-61, No Iterations 2
DILUPBiCGStab:  Solving for ILambda_120_0, Initial residual = 7.18067538775e-16, Final residual = 9.18620524405e-61, No Iterations 39
DILUPBiCGStab:  Solving for ILambda_121_0, Initial residual = 3.20074708176e-15, Final residual = 4.16702328007e-61, No Iterations 56
DILUPBiCGStab:  Solving for ILambda_122_0, Initial residual = 2.29633721996e-14, Final residual = 1.75945584415e-61, No Iterations 67
DILUPBiCGStab:  Solving for ILambda_123_0, Initial residual = 2.76802701711e-14, Final residual = 3.9810938786e-61, No Iterations 70
DILUPBiCGStab:  Solving for ILambda_124_0, Initial residual = 1.67581273027e-13, Final residual = 2.94493977041e-61, No Iterations 68
DILUPBiCGStab:  Solving for ILambda_125_0, Initial residual = 7.96193966828e-15, Final residual = 5.54783707177e-61, No Iterations 65
DILUPBiCGStab:  Solving for ILambda_126_0, Initial residual = 1.08344269031e-15, Final residual = 8.01278264371e-61, No Iterations 59
DILUPBiCGStab:  Solving for ILambda_127_0, Initial residual = 1.45662606318e-15, Final residual = 2.24419014097e-61, No Iterations 39
min/max(T) = 1000, 1000
PIMPLE: iteration 2
Radiation solver iter: 0
DILUPBiCGStab:  Solving for ILambda_0_0, Initial residual = 1.70619159054e-16, Final residual = 2.57262494902e-62, No Iterations 2
DILUPBiCGStab:  Solving for ILambda_1_0, Initial residual = 1.76879247834e-16, Final residual = 1.57098254531e-61, No Iterations 2
DILUPBiCGStab:  Solving for ILambda_2_0, Initial residual = 1.70192371515e-16, Final residual = 5.69726649012e-62, No Iterations 2
DILUPBiCGStab:  Solving for ILambda_3_0, Initial residual = 1.86425254377e-16, Final residual = 5.01997605369e-62, No Iterations 2
DILUPBiCGStab:  Solving for ILambda_4_0, Initial residual = 1.90269125306e-16, Final residual = 1.08005592798e-61, No Iterations 2
DILUPBiCGStab:  Solving for ILambda_5_0, Initial residual = 1.90547687614e-16, Final residual = 5.79516565313e-62, No Iterations 2
DILUPBiCGStab:  Solving for ILambda_6_0, Initial residual = 2.02841225249e-16, Final residual = 8.89056874582e-62, No Iterations 2
DILUPBiCGStab:  Solving for ILambda_7_0, Initial residual = 1.88695392727e-16, Final residual = 2.10235195405e-62, No Iterations 2
DILUPBiCGStab:  Solving for ILambda_8_0, Initial residual = 2.19652817484e-16, Final residual = 7.27937327625e-61, No Iterations 37
DILUPBiCGStab:  Solving for ILambda_9_0, Initial residual = 2.84795777558e-16, Final residual = 5.51447997147e-61, No Iterations 61
DILUPBiCGStab:  Solving for ILambda_10_0, Initial residual = 3.6139988129e-16, Final residual = 3.36943962312e-61, No Iterations 71
DILUPBiCGStab:  Solving for ILambda_11_0, Initial residual = 3.69159813104e-16, Final residual = 3.10381658753e-61, No Iterations 76
DILUPBiCGStab:  Solving for ILambda_12_0, Initial residual = 3.59803353001e-16, Final residual = 5.37763449443e-61, No Iterations 71
DILUPBiCGStab:  Solving for ILambda_13_0, Initial residual = 3.25402267564e-16, Final residual = 3.86713776809e-61, No Iterations 66
DILUPBiCGStab:  Solving for ILambda_14_0, Initial residual = 3.19361170568e-16, Final residual = 3.66891079539e-61, No Iterations 57
DILUPBiCGStab:  Solving for ILambda_15_0, Initial residual = 2.3570293101e-16, Final residual = 1.81480556717e-61, No Iterations 38
DILUPBiCGStab:  Solving for ILambda_16_0, Initial residual = 1.92472299928e-16, Final residual = 8.68317632657e-61, No Iterations 19
DILUPBiCGStab:  Solving for ILambda_17_0, Initial residual = 2.03897454832e-16, Final residual = 1.11361882418e-61, No Iterations 19
DILUPBiCGStab:  Solving for ILambda_18_0, Initial residual = 2.04728956525e-16, Final residual = 1.55825112434e-61, No Iterations 19
DILUPBiCGStab:  Solving for ILambda_19_0, Initial residual = 2.07692186452e-16, Final residual = 4.64522445124e-61, No Iterations 21
DILUPBiCGStab:  Solving for ILambda_20_0, Initial residual = 1.99375746121e-16, Final residual = 9.76397163328e-63, No Iterations 19
DILUPBiCGStab:  Solving for ILambda_21_0, Initial residual = 1.90367233965e-16, Final residual = 5.92824213224e-61, No Iterations 20
DILUPBiCGStab:  Solving for ILambda_22_0, Initial residual = 1.84041583616e-16, Final residual = 8.02192128319e-61, No Iterations 18
DILUPBiCGStab:  Solving for ILambda_23_0, Initial residual = 1.77745463591e-16, Final residual = 3.06961795201e-61, No Iterations 19
DILUPBiCGStab:  Solving for ILambda_24_0, Initial residual = 2.19425837641e-16, Final residual = 8.42070190207e-61, No Iterations 40
DILUPBiCGStab:  Solving for ILambda_25_0, Initial residual = 3.26141609152e-16, Final residual = 2.17964247416e-61, No Iterations 57
DILUPBiCGStab:  Solving for ILambda_26_0, Initial residual = 3.39782621846e-16, Final residual = 3.14746882203e-61, No Iterations 67
DILUPBiCGStab:  Solving for ILambda_27_0, Initial residual = 3.76086947291e-16, Final residual = 8.29314138229e-61, No Iterations 76
DILUPBiCGStab:  Solving for ILambda_28_0, Initial residual = 3.59790712323e-16, Final residual = 9.6992072768e-61, No Iterations 77
DILUPBiCGStab:  Solving for ILambda_29_0, Initial residual = 3.57574429636e-16, Final residual = 3.24194226202e-61, No Iterations 67
DILUPBiCGStab:  Solving for ILambda_30_0, Initial residual = 2.93823325088e-16, Final residual = 9.1429509111e-61, No Iterations 59
DILUPBiCGStab:  Solving for ILambda_31_0, Initial residual = 2.29361601972e-16, Final residual = 9.10175532318e-61, No Iterations 39
DILUPBiCGStab:  Solving for ILambda_32_0, Initial residual = 7.13596881407e-16, Final residual = 8.90243296398e-61, No Iterations 2
DILUPBiCGStab:  Solving for ILambda_33_0, Initial residual = 7.43374580341e-16, Final residual = 8.37444834688e-61, No Iterations 2
DILUPBiCGStab:  Solving for ILambda_34_0, Initial residual = 7.61128593564e-16, Final residual = 5.18301451925e-61, No Iterations 2
DILUPBiCGStab:  Solving for ILambda_35_0, Initial residual = 7.9998523129e-16, Final residual = 4.45719506187e-61, No Iterations 2
DILUPBiCGStab:  Solving for ILambda_36_0, Initial residual = 7.71330067077e-16, Final residual = 6.6410058542e-61, No Iterations 2
DILUPBiCGStab:  Solving for ILambda_37_0, Initial residual = 8.98684709533e-16, Final residual = 9.79311995816e-76, No Iterations 2
DILUPBiCGStab:  Solving for ILambda_38_0, Initial residual = 8.58217033294e-16, Final residual = 4.37636680634e-61, No Iterations 2
DILUPBiCGStab:  Solving for ILambda_39_0, Initial residual = 8.07626234504e-16, Final residual = 8.81281292728e-61, No Iterations 2
DILUPBiCGStab:  Solving for ILambda_40_0, Initial residual = 1.11041275651e-15, Final residual = 5.5722053262e-61, No Iterations 40
DILUPBiCGStab:  Solving for ILambda_41_0, Initial residual = 1.32583596055e-15, Final residual = 1.89211787227e-61, No Iterations 61
DILUPBiCGStab:  Solving for ILambda_42_0, Initial residual = 1.70585732427e-15, Final residual = 9.96933576513e-61, No Iterations 69
DILUPBiCGStab:  Solving for ILambda_43_0, Initial residual = 1.73383112405e-15, Final residual = 9.88920468685e-61, No Iterations 78
DILUPBiCGStab:  Solving for ILambda_44_0, Initial residual = 1.80598190621e-15, Final residual = 5.22061305484e-61, No Iterations 73
DILUPBiCGStab:  Solving for ILambda_45_0, Initial residual = 1.67477298285e-15, Final residual = 8.64500220141e-61, No Iterations 69
DILUPBiCGStab:  Solving for ILambda_46_0, Initial residual = 1.46405585022e-15, Final residual = 1.52358547223e-61, No Iterations 59
DILUPBiCGStab:  Solving for ILambda_47_0, Initial residual = 1.04618039266e-15, Final residual = 9.02107167427e-61, No Iterations 41
DILUPBiCGStab:  Solving for ILambda_48_0, Initial residual = 8.32034088325e-16, Final residual = 2.12277377904e-61, No Iterations 25
DILUPBiCGStab:  Solving for ILambda_49_0, Initial residual = 9.40426693611e-16, Final residual = 9.85607690659e-61, No Iterations 23
DILUPBiCGStab:  Solving for ILambda_50_0, Initial residual = 9.68767434229e-16, Final residual = 2.24978417032e-61, No Iterations 25
DILUPBiCGStab:  Solving for ILambda_51_0, Initial residual = 8.93886308058e-16, Final residual = 1.68268755683e-61, No Iterations 24
DILUPBiCGStab:  Solving for ILambda_52_0, Initial residual = 9.00435539076e-16, Final residual = 2.0504714445e-61, No Iterations 22
DILUPBiCGStab:  Solving for ILambda_53_0, Initial residual = 8.06749630021e-16, Final residual = 4.35053904646e-62, No Iterations 22
DILUPBiCGStab:  Solving for ILambda_54_0, Initial residual = 8.06840685395e-16, Final residual = 6.63203564628e-62, No Iterations 23
DILUPBiCGStab:  Solving for ILambda_55_0, Initial residual = 7.49291607486e-16, Final residual = 1.15376496739e-61, No Iterations 22
DILUPBiCGStab:  Solving for ILambda_56_0, Initial residual = 1.08576147934e-15, Final residual = 2.88011187747e-61, No Iterations 42
DILUPBiCGStab:  Solving for ILambda_57_0, Initial residual = 1.48799771978e-15, Final residual = 2.36272384744e-61, No Iterations 56
DILUPBiCGStab:  Solving for ILambda_58_0, Initial residual = 1.76376386781e-15, Final residual = 5.66478752255e-61, No Iterations 69
DILUPBiCGStab:  Solving for ILambda_59_0, Initial residual = 1.85466598084e-15, Final residual = 7.04682868335e-61, No Iterations 76
DILUPBiCGStab:  Solving for ILambda_60_0, Initial residual = 1.77170225626e-15, Final residual = 5.62635638636e-61, No Iterations 74
DILUPBiCGStab:  Solving for ILambda_61_0, Initial residual = 1.80127846916e-15, Final residual = 7.13493890974e-62, No Iterations 68
DILUPBiCGStab:  Solving for ILambda_62_0, Initial residual = 1.3541185328e-15, Final residual = 7.03945511226e-61, No Iterations 60
DILUPBiCGStab:  Solving for ILambda_63_0, Initial residual = 1.03906787602e-15, Final residual = 1.42783132333e-61, No Iterations 41
DILUPBiCGStab:  Solving for ILambda_64_0, Initial residual = 8.43482676287e-16, Final residual = 5.76222769992e-62, No Iterations 26
DILUPBiCGStab:  Solving for ILambda_65_0, Initial residual = 9.32974472024e-16, Final residual = 2.90265767808e-62, No Iterations 25
DILUPBiCGStab:  Solving for ILambda_66_0, Initial residual = 8.30114489795e-16, Final residual = 6.7718554497e-62, No Iterations 25
DILUPBiCGStab:  Solving for ILambda_67_0, Initial residual = 8.21044303876e-16, Final residual = 3.39410511602e-61, No Iterations 23
DILUPBiCGStab:  Solving for ILambda_68_0, Initial residual = 8.37183581985e-16, Final residual = 3.5391484618e-62, No Iterations 25
DILUPBiCGStab:  Solving for ILambda_69_0, Initial residual = 1.00051363731e-15, Final residual = 8.85623649893e-61, No Iterations 28
DILUPBiCGStab:  Solving for ILambda_70_0, Initial residual = 1.07174188364e-15, Final residual = 2.26246648525e-61, No Iterations 28
DILUPBiCGStab:  Solving for ILambda_71_0, Initial residual = 1.01239553498e-15, Final residual = 7.98347633828e-61, No Iterations 25
DILUPBiCGStab:  Solving for ILambda_72_0, Initial residual = 1.08236026585e-15, Final residual = 7.42581924067e-61, No Iterations 40
DILUPBiCGStab:  Solving for ILambda_73_0, Initial residual = 1.36166214969e-15, Final residual = 4.00505206812e-61, No Iterations 58
DILUPBiCGStab:  Solving for ILambda_74_0, Initial residual = 1.54227785455e-15, Final residual = 4.11162543341e-61, No Iterations 70
DILUPBiCGStab:  Solving for ILambda_75_0, Initial residual = 1.73055406539e-15, Final residual = 2.95085869044e-61, No Iterations 77
DILUPBiCGStab:  Solving for ILambda_76_0, Initial residual = 1.69186645159e-15, Final residual = 2.14274709917e-61, No Iterations 78
DILUPBiCGStab:  Solving for ILambda_77_0, Initial residual = 1.66614817371e-15, Final residual = 4.70033907312e-61, No Iterations 70
DILUPBiCGStab:  Solving for ILambda_78_0, Initial residual = 1.38861636723e-15, Final residual = 3.88108164314e-61, No Iterations 61
DILUPBiCGStab:  Solving for ILambda_79_0, Initial residual = 1.17076530317e-15, Final residual = 9.80675557031e-61, No Iterations 40
DILUPBiCGStab:  Solving for ILambda_80_0, Initial residual = 9.17421381469e-16, Final residual = 4.38949068028e-75, No Iterations 2
DILUPBiCGStab:  Solving for ILambda_81_0, Initial residual = 8.171191502e-16, Final residual = 4.06255255189e-75, No Iterations 2
DILUPBiCGStab:  Solving for ILambda_82_0, Initial residual = 8.28789959159e-16, Final residual = 1.70739073611e-73, No Iterations 2
DILUPBiCGStab:  Solving for ILambda_83_0, Initial residual = 7.99758081489e-16, Final residual = 2.84067510291e-75, No Iterations 2
DILUPBiCGStab:  Solving for ILambda_84_0, Initial residual = 7.71667137669e-16, Final residual = 1.24043445415e-75, No Iterations 2
DILUPBiCGStab:  Solving for ILambda_85_0, Initial residual = 7.58273584841e-16, Final residual = 3.70893371803e-61, No Iterations 2
DILUPBiCGStab:  Solving for ILambda_86_0, Initial residual = 7.41636837618e-16, Final residual = 1.92812266776e-61, No Iterations 2
DILUPBiCGStab:  Solving for ILambda_87_0, Initial residual = 7.0512524754e-16, Final residual = 9.91004579547e-74, No Iterations 2
DILUPBiCGStab:  Solving for ILambda_88_0, Initial residual = 1.17728504635e-15, Final residual = 5.82217139221e-61, No Iterations 40
DILUPBiCGStab:  Solving for ILambda_89_0, Initial residual = 1.40857011342e-15, Final residual = 9.42740721138e-61, No Iterations 60
DILUPBiCGStab:  Solving for ILambda_90_0, Initial residual = 1.6258042274e-15, Final residual = 9.55586528177e-61, No Iterations 68
DILUPBiCGStab:  Solving for ILambda_91_0, Initial residual = 1.67579392476e-15, Final residual = 7.97527156364e-61, No Iterations 75
DILUPBiCGStab:  Solving for ILambda_92_0, Initial residual = 1.75453829715e-15, Final residual = 7.72447660479e-61, No Iterations 70
DILUPBiCGStab:  Solving for ILambda_93_0, Initial residual = 1.51723210324e-15, Final residual = 3.00725509228e-61, No Iterations 70
DILUPBiCGStab:  Solving for ILambda_94_0, Initial residual = 1.36276968555e-15, Final residual = 4.97774820738e-61, No Iterations 58
DILUPBiCGStab:  Solving for ILambda_95_0, Initial residual = 1.01601251104e-15, Final residual = 3.23409158981e-62, No Iterations 41
DILUPBiCGStab:  Solving for ILambda_96_0, Initial residual = 2.08846673408e-16, Final residual = 5.04836161823e-62, No Iterations 20
DILUPBiCGStab:  Solving for ILambda_97_0, Initial residual = 1.87975320207e-16, Final residual = 3.90966806206e-61, No Iterations 18
DILUPBiCGStab:  Solving for ILambda_98_0, Initial residual = 1.90037429109e-16, Final residual = 4.41415694496e-62, No Iterations 21
DILUPBiCGStab:  Solving for ILambda_99_0, Initial residual = 2.03320657496e-16, Final residual = 1.81032144534e-61, No Iterations 19
DILUPBiCGStab:  Solving for ILambda_100_0, Initial residual = 2.01223728306e-16, Final residual = 5.76700061283e-62, No Iterations 20
DILUPBiCGStab:  Solving for ILambda_101_0, Initial residual = 2.02787900707e-16, Final residual = 3.76922104461e-62, No Iterations 20
DILUPBiCGStab:  Solving for ILambda_102_0, Initial residual = 2.11263379892e-16, Final residual = 4.67855805862e-62, No Iterations 20
DILUPBiCGStab:  Solving for ILambda_103_0, Initial residual = 2.26275067009e-16, Final residual = 1.22850109372e-61, No Iterations 18
DILUPBiCGStab:  Solving for ILambda_104_0, Initial residual = 2.11675805921e-16, Final residual = 5.72314195109e-61, No Iterations 40
DILUPBiCGStab:  Solving for ILambda_105_0, Initial residual = 2.43745227959e-16, Final residual = 5.68763938166e-61, No Iterations 58
DILUPBiCGStab:  Solving for ILambda_106_0, Initial residual = 3.32724598217e-16, Final residual = 3.3671578281e-61, No Iterations 68
DILUPBiCGStab:  Solving for ILambda_107_0, Initial residual = 3.5282986258e-16, Final residual = 7.2796145328e-61, No Iterations 74
DILUPBiCGStab:  Solving for ILambda_108_0, Initial residual = 3.28445208121e-16, Final residual = 8.48635062865e-61, No Iterations 77
DILUPBiCGStab:  Solving for ILambda_109_0, Initial residual = 3.44067641824e-16, Final residual = 3.36544149433e-61, No Iterations 69
DILUPBiCGStab:  Solving for ILambda_110_0, Initial residual = 2.96605166592e-16, Final residual = 6.31215675884e-61, No Iterations 56
DILUPBiCGStab:  Solving for ILambda_111_0, Initial residual = 2.30543154851e-16, Final residual = 3.56540764815e-61, No Iterations 39
DILUPBiCGStab:  Solving for ILambda_112_0, Initial residual = 1.85423284109e-16, Final residual = 2.34668323531e-62, No Iterations 2
DILUPBiCGStab:  Solving for ILambda_113_0, Initial residual = 1.97622175993e-16, Final residual = 1.841762943e-61, No Iterations 2
DILUPBiCGStab:  Solving for ILambda_114_0, Initial residual = 1.94845348271e-16, Final residual = 1.00479558741e-75, No Iterations 2
DILUPBiCGStab:  Solving for ILambda_115_0, Initial residual = 1.93318651762e-16, Final residual = 4.08630292294e-62, No Iterations 2
DILUPBiCGStab:  Solving for ILambda_116_0, Initial residual = 1.96071387839e-16, Final residual = 1.43743457115e-61, No Iterations 2
DILUPBiCGStab:  Solving for ILambda_117_0, Initial residual = 1.70699592009e-16, Final residual = 4.69700432477e-62, No Iterations 2
DILUPBiCGStab:  Solving for ILambda_118_0, Initial residual = 1.83695908866e-16, Final residual = 7.29082882573e-62, No Iterations 2
DILUPBiCGStab:  Solving for ILambda_119_0, Initial residual = 1.7156398071e-16, Final residual = 1.2664169372e-61, No Iterations 2
DILUPBiCGStab:  Solving for ILambda_120_0, Initial residual = 2.35060083474e-16, Final residual = 4.61457780055e-61, No Iterations 40
DILUPBiCGStab:  Solving for ILambda_121_0, Initial residual = 2.96347105552e-16, Final residual = 1.18273743655e-61, No Iterations 60
DILUPBiCGStab:  Solving for ILambda_122_0, Initial residual = 3.20529381689e-16, Final residual = 3.05700460143e-61, No Iterations 68
DILUPBiCGStab:  Solving for ILambda_123_0, Initial residual = 3.33170994741e-16, Final residual = 4.75217394903e-61, No Iterations 75
DILUPBiCGStab:  Solving for ILambda_124_0, Initial residual = 3.71320901704e-16, Final residual = 5.80287209631e-61, No Iterations 77
DILUPBiCGStab:  Solving for ILambda_125_0, Initial residual = 3.21813377175e-16, Final residual = 8.30616793164e-61, No Iterations 65
DILUPBiCGStab:  Solving for ILambda_126_0, Initial residual = 2.6950520946e-16, Final residual = 5.4161766654e-61, No Iterations 59
DILUPBiCGStab:  Solving for ILambda_127_0, Initial residual = 2.22300625309e-16, Final residual = 3.66037597474e-62, No Iterations 38
min/max(T) = 1000, 1000
PIMPLE: iteration 3
Radiation solver iter: 0
DILUPBiCGStab:  Solving for ILambda_0_0, Initial residual = 1.73533780793e-16, Final residual = 9.77682462981e-61, No Iterations 2
DILUPBiCGStab:  Solving for ILambda_1_0, Initial residual = 1.79727288252e-16, Final residual = 8.35109493956e-62, No Iterations 2
DILUPBiCGStab:  Solving for ILambda_2_0, Initial residual = 1.71132986692e-16, Final residual = 2.32182670861e-61, No Iterations 2
DILUPBiCGStab:  Solving for ILambda_3_0, Initial residual = 1.89878220297e-16, Final residual = 3.59174788308e-62, No Iterations 2
DILUPBiCGStab:  Solving for ILambda_4_0, Initial residual = 1.93423898687e-16, Final residual = 2.08306648676e-62, No Iterations 2
DILUPBiCGStab:  Solving for ILambda_5_0, Initial residual = 1.87726713119e-16, Final residual = 9.45732431803e-61, No Iterations 2
DILUPBiCGStab:  Solving for ILambda_6_0, Initial residual = 1.97625681391e-16, Final residual = 9.53658519185e-62, No Iterations 2
DILUPBiCGStab:  Solving for ILambda_7_0, Initial residual = 1.86481616931e-16, Final residual = 4.18311383366e-62, No Iterations 2
DILUPBiCGStab:  Solving for ILambda_8_0, Initial residual = 1.80109334164e-16, Final residual = 2.92132734385e-61, No Iterations 37
DILUPBiCGStab:  Solving for ILambda_9_0, Initial residual = 2.33594338404e-16, Final residual = 7.88604136398e-61, No Iterations 57
DILUPBiCGStab:  Solving for ILambda_10_0, Initial residual = 2.69819696788e-16, Final residual = 8.69302657418e-61, No Iterations 70
DILUPBiCGStab:  Solving for ILambda_11_0, Initial residual = 3.10668930307e-16, Final residual = 3.49907880911e-61, No Iterations 76
DILUPBiCGStab:  Solving for ILambda_12_0, Initial residual = 3.1391488653e-16, Final residual = 2.99262769548e-61, No Iterations 73
DILUPBiCGStab:  Solving for ILambda_13_0, Initial residual = 2.78245271849e-16, Final residual = 6.62512873359e-61, No Iterations 68
DILUPBiCGStab:  Solving for ILambda_14_0, Initial residual = 2.26547085907e-16, Final residual = 1.38286253706e-61, No Iterations 58
DILUPBiCGStab:  Solving for ILambda_15_0, Initial residual = 1.99157434171e-16, Final residual = 8.83563629828e-61, No Iterations 40
DILUPBiCGStab:  Solving for ILambda_16_0, Initial residual = 1.86436046755e-16, Final residual = 1.17650668503e-61, No Iterations 20
DILUPBiCGStab:  Solving for ILambda_17_0, Initial residual = 1.96276379276e-16, Final residual = 2.784153942e-61, No Iterations 20
DILUPBiCGStab:  Solving for ILambda_18_0, Initial residual = 1.91481270751e-16, Final residual = 1.58837765888e-61, No Iterations 19
DILUPBiCGStab:  Solving for ILambda_19_0, Initial residual = 1.86036133935e-16, Final residual = 5.96282444612e-61, No Iterations 21
DILUPBiCGStab:  Solving for ILambda_20_0, Initial residual = 1.91112035476e-16, Final residual = 4.59220749488e-61, No Iterations 19
DILUPBiCGStab:  Solving for ILambda_21_0, Initial residual = 1.71945325542e-16, Final residual = 7.12850182409e-61, No Iterations 20
DILUPBiCGStab:  Solving for ILambda_22_0, Initial residual = 1.79136086916e-16, Final residual = 1.0685469573e-61, No Iterations 18
DILUPBiCGStab:  Solving for ILambda_23_0, Initial residual = 1.72960722547e-16, Final residual = 7.86228121702e-61, No Iterations 18
DILUPBiCGStab:  Solving for ILambda_24_0, Initial residual = 2.01375905076e-16, Final residual = 3.70092540388e-61, No Iterations 39
DILUPBiCGStab:  Solving for ILambda_25_0, Initial residual = 2.44223130577e-16, Final residual = 8.14720512237e-61, No Iterations 58
DILUPBiCGStab:  Solving for ILambda_26_0, Initial residual = 2.80594122322e-16, Final residual = 4.50035599127e-61, No Iterations 67
DILUPBiCGStab:  Solving for ILambda_27_0, Initial residual = 3.20983617558e-16, Final residual = 1.979420754e-61, No Iterations 75
DILUPBiCGStab:  Solving for ILambda_28_0, Initial residual = 2.73830573384e-16, Final residual = 7.41907613234e-61, No Iterations 72
DILUPBiCGStab:  Solving for ILambda_29_0, Initial residual = 2.78293667589e-16, Final residual = 6.68933855332e-61, No Iterations 71
DILUPBiCGStab:  Solving for ILambda_30_0, Initial residual = 2.5491397892e-16, Final residual = 2.90816243183e-61, No Iterations 60
DILUPBiCGStab:  Solving for ILambda_31_0, Initial residual = 1.83419874693e-16, Final residual = 8.23258973785e-61, No Iterations 38
DILUPBiCGStab:  Solving for ILambda_32_0, Initial residual = 7.14777499513e-16, Final residual = 1.53955853209e-75, No Iterations 2
DILUPBiCGStab:  Solving for ILambda_33_0, Initial residual = 7.64531761585e-16, Final residual = 4.0702932757e-75, No Iterations 2
DILUPBiCGStab:  Solving for ILambda_34_0, Initial residual = 7.54638083277e-16, Final residual = 3.6255919702e-61, No Iterations 2
DILUPBiCGStab:  Solving for ILambda_35_0, Initial residual = 7.60840088672e-16, Final residual = 4.43564618382e-75, No Iterations 2
DILUPBiCGStab:  Solving for ILambda_36_0, Initial residual = 7.82286624602e-16, Final residual = 5.65927951132e-61, No Iterations 2
DILUPBiCGStab:  Solving for ILambda_37_0, Initial residual = 8.62882187149e-16, Final residual = 7.84504537401e-61, No Iterations 2
DILUPBiCGStab:  Solving for ILambda_38_0, Initial residual = 8.69105012484e-16, Final residual = 9.95568191622e-61, No Iterations 2
DILUPBiCGStab:  Solving for ILambda_39_0, Initial residual = 7.9398377716e-16, Final residual = 7.0481807023e-61, No Iterations 2
DILUPBiCGStab:  Solving for ILambda_40_0, Initial residual = 8.16000906935e-16, Final residual = 8.45774400639e-61, No Iterations 40
DILUPBiCGStab:  Solving for ILambda_41_0, Initial residual = 9.80154837058e-16, Final residual = 4.33611515799e-61, No Iterations 63
DILUPBiCGStab:  Solving for ILambda_42_0, Initial residual = 1.3532058121e-15, Final residual = 6.19850917954e-63, No Iterations 71
DILUPBiCGStab:  Solving for ILambda_43_0, Initial residual = 1.26709173307e-15, Final residual = 4.97347435992e-61, No Iterations 78
DILUPBiCGStab:  Solving for ILambda_44_0, Initial residual = 9.90801177466e-16, Final residual = 3.67222798695e-61, No Iterations 75
DILUPBiCGStab:  Solving for ILambda_45_0, Initial residual = 1.30907280655e-15, Final residual = 9.83992788082e-61, No Iterations 70
DILUPBiCGStab:  Solving for ILambda_46_0, Initial residual = 1.13624881577e-15, Final residual = 6.98111257597e-61, No Iterations 61
DILUPBiCGStab:  Solving for ILambda_47_0, Initial residual = 1.00535474091e-15, Final residual = 3.62308431065e-61, No Iterations 40
DILUPBiCGStab:  Solving for ILambda_48_0, Initial residual = 8.09666206285e-16, Final residual = 1.89733035482e-61, No Iterations 25
DILUPBiCGStab:  Solving for ILambda_49_0, Initial residual = 8.52864184052e-16, Final residual = 3.17286346519e-61, No Iterations 21
DILUPBiCGStab:  Solving for ILambda_50_0, Initial residual = 8.77676497089e-16, Final residual = 2.42085665828e-61, No Iterations 23
DILUPBiCGStab:  Solving for ILambda_51_0, Initial residual = 8.39807829284e-16, Final residual = 6.05920131357e-61, No Iterations 25
DILUPBiCGStab:  Solving for ILambda_52_0, Initial residual = 8.01538951231e-16, Final residual = 8.49529557796e-62, No Iterations 25
DILUPBiCGStab:  Solving for ILambda_53_0, Initial residual = 7.88375437503e-16, Final residual = 2.52580051849e-61, No Iterations 25
DILUPBiCGStab:  Solving for ILambda_54_0, Initial residual = 7.51012481809e-16, Final residual = 5.6837025551e-61, No Iterations 22
DILUPBiCGStab:  Solving for ILambda_55_0, Initial residual = 7.19831348913e-16, Final residual = 3.51100249311e-62, No Iterations 23
DILUPBiCGStab:  Solving for ILambda_56_0, Initial residual = 9.81275417254e-16, Final residual = 7.85324568845e-61, No Iterations 40
DILUPBiCGStab:  Solving for ILambda_57_0, Initial residual = 1.23950764858e-15, Final residual = 3.88642184789e-62, No Iterations 58
DILUPBiCGStab:  Solving for ILambda_58_0, Initial residual = 1.41587863492e-15, Final residual = 3.21264751633e-61, No Iterations 68
DILUPBiCGStab:  Solving for ILambda_59_0, Initial residual = 1.52218189542e-15, Final residual = 4.76385289392e-62, No Iterations 76
DILUPBiCGStab:  Solving for ILambda_60_0, Initial residual = 1.3822190368e-15, Final residual = 4.43445665533e-61, No Iterations 76
DILUPBiCGStab:  Solving for ILambda_61_0, Initial residual = 1.40256929663e-15, Final residual = 3.24953814235e-61, No Iterations 70
DILUPBiCGStab:  Solving for ILambda_62_0, Initial residual = 1.10296074737e-15, Final residual = 7.61898239709e-61, No Iterations 60
DILUPBiCGStab:  Solving for ILambda_63_0, Initial residual = 7.84716736578e-16, Final residual = 7.80817560284e-62, No Iterations 42
DILUPBiCGStab:  Solving for ILambda_64_0, Initial residual = 8.1177513881e-16, Final residual = 5.12155779979e-62, No Iterations 23
DILUPBiCGStab:  Solving for ILambda_65_0, Initial residual = 7.59815577632e-16, Final residual = 3.85481415829e-62, No Iterations 23
[...]
DILUPBiCGStab:  Solving for ILambda_108_0, Initial residual = 2.86726040998e-16, Final residual = 1.67189889997e-61, No Iterations 74
DILUPBiCGStab:  Solving for ILambda_109_0, Initial residual = 3.14536765412e-16, Final residual = 5.03986565867e-61, No Iterations 68
DILUPBiCGStab:  Solving for ILambda_110_0, Initial residual = 2.62417018161e-16, Final residual = 4.21632265023e-61, No Iterations 55
DILUPBiCGStab:  Solving for ILambda_111_0, Initial residual = 1.96437818796e-16, Final residual = 2.20761119497e-62, No Iterations 38
DILUPBiCGStab:  Solving for ILambda_112_0, Initial residual = 1.84390912478e-16, Final residual = 1.37774136463e-61, No Iterations 2
DILUPBiCGStab:  Solving for ILambda_113_0, Initial residual = 1.96770534195e-16, Final residual = 3.10194933407e-61, No Iterations 2
DILUPBiCGStab:  Solving for ILambda_114_0, Initial residual = 1.88220018245e-16, Final residual = 4.99828419177e-62, No Iterations 2
DILUPBiCGStab:  Solving for ILambda_115_0, Initial residual = 1.87615708844e-16, Final residual = 6.46097651119e-62, No Iterations 2
DILUPBiCGStab:  Solving for ILambda_116_0, Initial residual = 1.89357976718e-16, Final residual = 2.42415739491e-61, No Iterations 2
DILUPBiCGStab:  Solving for ILambda_117_0, Initial residual = 1.68792315482e-16, Final residual = 3.02223835517e-62, No Iterations 2
DILUPBiCGStab:  Solving for ILambda_118_0, Initial residual = 1.81007905809e-16, Final residual = 2.463875165e-61, No Iterations 2
DILUPBiCGStab:  Solving for ILambda_119_0, Initial residual = 1.71010850122e-16, Final residual = 7.68591171435e-62, No Iterations 2
DILUPBiCGStab:  Solving for ILambda_120_0, Initial residual = 2.15818910385e-16, Final residual = 2.20878177357e-61, No Iterations 39
DILUPBiCGStab:  Solving for ILambda_121_0, Initial residual = 2.74591266033e-16, Final residual = 9.24637760748e-61, No Iterations 58
DILUPBiCGStab:  Solving for ILambda_122_0, Initial residual = 2.4472340401e-16, Final residual = 7.10528122405e-61, No Iterations 67
DILUPBiCGStab:  Solving for ILambda_123_0, Initial residual = 2.69921523294e-16, Final residual = 1.30283904428e-61, No Iterations 74
DILUPBiCGStab:  Solving for ILambda_124_0, Initial residual = 3.2374361937e-16, Final residual = 8.31264768807e-61, No Iterations 75
DILUPBiCGStab:  Solving for ILambda_125_0, Initial residual = 2.28314401444e-16, Final residual = 1.20268824879e-61, No Iterations 70
DILUPBiCGStab:  Solving for ILambda_126_0, Initial residual = 2.91039295365e-16, Final residual = 4.26349468759e-61, No Iterations 57
DILUPBiCGStab:  Solving for ILambda_127_0, Initial residual = 1.79733682949e-16, Final residual = 8.03842693179e-61, No Iterations 39
min/max(T) = 1000, 1000
PIMPLE: iteration 10
Radiation solver iter: 0
DILUPBiCGStab:  Solving for ILambda_0_0, Initial residual = 1.72634614293e-16, Final residual = 2.58707733501e-62, No Iterations 2
DILUPBiCGStab:  Solving for ILambda_1_0, Initial residual = 1.80018193812e-16, Final residual = 2.68757969871e-61, No Iterations 2
DILUPBiCGStab:  Solving for ILambda_2_0, Initial residual = 1.68779164928e-16, Final residual = 2.83178518552e-62, No Iterations 2
DILUPBiCGStab:  Solving for ILambda_3_0, Initial residual = 1.94511506895e-16, Final residual = 2.64491148019e-62, No Iterations 2
DILUPBiCGStab:  Solving for ILambda_4_0, Initial residual = 1.94717539328e-16, Final residual = 2.18750468512e-62, No Iterations 2
DILUPBiCGStab:  Solving for ILambda_5_0, Initial residual = 1.89692689131e-16, Final residual = 4.8802877214e-62, No Iterations 2
DILUPBiCGStab:  Solving for ILambda_6_0, Initial residual = 1.95170011876e-16, Final residual = 5.66985815747e-62, No Iterations 2
DILUPBiCGStab:  Solving for ILambda_7_0, Initial residual = 1.87304280771e-16, Final residual = 2.83515360762e-62, No Iterations 2
DILUPBiCGStab:  Solving for ILambda_8_0, Initial residual = 1.78334965341e-16, Final residual = 6.02517408953e-63, No Iterations 39
DILUPBiCGStab:  Solving for ILambda_9_0, Initial residual = 2.08738515941e-16, Final residual = 4.04455384276e-61, No Iterations 56
DILUPBiCGStab:  Solving for ILambda_10_0, Initial residual = 2.64147856312e-16, Final residual = 8.07226831254e-61, No Iterations 67
DILUPBiCGStab:  Solving for ILambda_11_0, Initial residual = 2.77557555216e-16, Final residual = 3.81863935069e-61, No Iterations 75
DILUPBiCGStab:  Solving for ILambda_12_0, Initial residual = 2.56371353524e-16, Final residual = 2.6496066388e-61, No Iterations 76
DILUPBiCGStab:  Solving for ILambda_13_0, Initial residual = 2.17764045211e-16, Final residual = 6.03803807105e-61, No Iterations 72
DILUPBiCGStab:  Solving for ILambda_14_0, Initial residual = 2.59163626244e-16, Final residual = 9.88591086082e-61, No Iterations 56
DILUPBiCGStab:  Solving for ILambda_15_0, Initial residual = 1.90899714571e-16, Final residual = 9.02260358207e-61, No Iterations 38
DILUPBiCGStab:  Solving for ILambda_16_0, Initial residual = 1.86034965469e-16, Final residual = 6.09791645863e-61, No Iterations 19
DILUPBiCGStab:  Solving for ILambda_17_0, Initial residual = 1.99499837216e-16, Final residual = 6.1729093509e-61, No Iterations 20
DILUPBiCGStab:  Solving for ILambda_18_0, Initial residual = 1.85813063142e-16, Final residual = 3.32527844129e-61, No Iterations 21
DILUPBiCGStab:  Solving for ILambda_19_0, Initial residual = 1.89387910693e-16, Final residual = 1.46056200822e-61, No Iterations 21
DILUPBiCGStab:  Solving for ILambda_20_0, Initial residual = 1.8968569958e-16, Final residual = 5.66463503181e-62, No Iterations 20
DILUPBiCGStab:  Solving for ILambda_21_0, Initial residual = 1.7007408026e-16, Final residual = 1.10411719104e-61, No Iterations 20
DILUPBiCGStab:  Solving for ILambda_22_0, Initial residual = 1.76713453123e-16, Final residual = 9.69780633427e-61, No Iterations 20
DILUPBiCGStab:  Solving for ILambda_23_0, Initial residual = 1.72413731718e-16, Final residual = 7.57260394877e-61, No Iterations 19
DILUPBiCGStab:  Solving for ILambda_24_0, Initial residual = 2.08748033628e-16, Final residual = 4.60142651912e-61, No Iterations 38
DILUPBiCGStab:  Solving for ILambda_25_0, Initial residual = 2.49431132518e-16, Final residual = 7.07487469865e-61, No Iterations 55
DILUPBiCGStab:  Solving for ILambda_26_0, Initial residual = 2.6778979506e-16, Final residual = 5.60281129668e-61, No Iterations 70
DILUPBiCGStab:  Solving for ILambda_27_0, Initial residual = 2.33052063929e-16, Final residual = 1.69804942127e-61, No Iterations 72
DILUPBiCGStab:  Solving for ILambda_28_0, Initial residual = 2.49977570982e-16, Final residual = 4.45280956011e-61, No Iterations 74
DILUPBiCGStab:  Solving for ILambda_29_0, Initial residual = 2.33766549057e-16, Final residual = 8.61766591083e-61, No Iterations 70
DILUPBiCGStab:  Solving for ILambda_30_0, Initial residual = 2.30401897927e-16, Final residual = 9.57442712112e-61, No Iterations 55
DILUPBiCGStab:  Solving for ILambda_31_0, Initial residual = 1.90775113599e-16, Final residual = 9.98142226978e-61, No Iterations 39
DILUPBiCGStab:  Solving for ILambda_32_0, Initial residual = 7.21368837799e-16, Final residual = 4.1400026252e-75, No Iterations 2
DILUPBiCGStab:  Solving for ILambda_33_0, Initial residual = 7.42415970785e-16, Final residual = 9.80978679032e-76, No Iterations 2
DILUPBiCGStab:  Solving for ILambda_34_0, Initial residual = 7.46679682191e-16, Final residual = 4.72365615737e-61, No Iterations 2
DILUPBiCGStab:  Solving for ILambda_35_0, Initial residual = 7.85322639342e-16, Final residual = 6.00635366112e-61, No Iterations 2
DILUPBiCGStab:  Solving for ILambda_36_0, Initial residual = 7.69484995435e-16, Final residual = 8.78540203096e-61, No Iterations 2
DILUPBiCGStab:  Solving for ILambda_37_0, Initial residual = 8.78469949278e-16, Final residual = 1.15098223903e-75, No Iterations 2
DILUPBiCGStab:  Solving for ILambda_38_0, Initial residual = 8.5787652104e-16, Final residual = 7.18868718007e-61, No Iterations 2
DILUPBiCGStab:  Solving for ILambda_39_0, Initial residual = 7.99652367177e-16, Final residual = 6.93704935639e-61, No Iterations 2
DILUPBiCGStab:  Solving for ILambda_40_0, Initial residual = 8.00678322866e-16, Final residual = 1.11569800772e-61, No Iterations 40
DILUPBiCGStab:  Solving for ILambda_41_0, Initial residual = 9.89035901434e-16, Final residual = 3.96699043136e-61, No Iterations 60
DILUPBiCGStab:  Solving for ILambda_42_0, Initial residual = 1.45876635308e-15, Final residual = 8.84400610341e-61, No Iterations 70
DILUPBiCGStab:  Solving for ILambda_43_0, Initial residual = 1.08358426591e-15, Final residual = 3.74043839644e-61, No Iterations 73
DILUPBiCGStab:  Solving for ILambda_44_0, Initial residual = 1.23280774917e-15, Final residual = 3.29291211212e-61, No Iterations 74
DILUPBiCGStab:  Solving for ILambda_45_0, Initial residual = 1.31857995628e-15, Final residual = 7.57558748748e-61, No Iterations 70
DILUPBiCGStab:  Solving for ILambda_46_0, Initial residual = 1.17275195041e-15, Final residual = 6.39592849682e-61, No Iterations 59
DILUPBiCGStab:  Solving for ILambda_47_0, Initial residual = 8.97036535044e-16, Final residual = 5.83263359472e-61, No Iterations 41
DILUPBiCGStab:  Solving for ILambda_48_0, Initial residual = 7.92383616004e-16, Final residual = 9.37484347309e-61, No Iterations 22
DILUPBiCGStab:  Solving for ILambda_49_0, Initial residual = 8.59762722688e-16, Final residual = 2.41107201504e-61, No Iterations 24
DILUPBiCGStab:  Solving for ILambda_50_0, Initial residual = 8.97147305626e-16, Final residual = 4.94895804596e-62, No Iterations 25
DILUPBiCGStab:  Solving for ILambda_51_0, Initial residual = 8.36785198792e-16, Final residual = 6.02569569534e-61, No Iterations 25
DILUPBiCGStab:  Solving for ILambda_52_0, Initial residual = 8.11464964182e-16, Final residual = 5.98338006114e-61, No Iterations 23
DILUPBiCGStab:  Solving for ILambda_53_0, Initial residual = 7.84450198847e-16, Final residual = 2.12713539631e-61, No Iterations 26
DILUPBiCGStab:  Solving for ILambda_54_0, Initial residual = 7.4715424937e-16, Final residual = 7.1357219378e-62, No Iterations 24
DILUPBiCGStab:  Solving for ILambda_55_0, Initial residual = 7.23217818492e-16, Final residual = 2.90001219048e-61, No Iterations 23
DILUPBiCGStab:  Solving for ILambda_56_0, Initial residual = 8.99408988531e-16, Final residual = 5.46910523688e-61, No Iterations 40
DILUPBiCGStab:  Solving for ILambda_57_0, Initial residual = 1.00779169372e-15, Final residual = 3.88468514067e-61, No Iterations 59
DILUPBiCGStab:  Solving for ILambda_58_0, Initial residual = 1.31694554845e-15, Final residual = 8.96834311512e-61, No Iterations 69
DILUPBiCGStab:  Solving for ILambda_59_0, Initial residual = 1.2078474446e-15, Final residual = 4.87445001012e-61, No Iterations 74
DILUPBiCGStab:  Solving for ILambda_60_0, Initial residual = 1.38429856647e-15, Final residual = 2.86334583579e-61, No Iterations 76
DILUPBiCGStab:  Solving for ILambda_61_0, Initial residual = 1.22730057743e-15, Final residual = 8.44162497735e-61, No Iterations 73
DILUPBiCGStab:  Solving for ILambda_62_0, Initial residual = 9.89855399793e-16, Final residual = 2.1248049427e-61, No Iterations 60
DILUPBiCGStab:  Solving for ILambda_63_0, Initial residual = 7.72464583886e-16, Final residual = 4.64904854321e-61, No Iterations 41
DILUPBiCGStab:  Solving for ILambda_64_0, Initial residual = 7.25186747537e-16, Final residual = 1.35481435619e-61, No Iterations 25
DILUPBiCGStab:  Solving for ILambda_65_0, Initial residual = 7.55685751192e-16, Final residual = 1.6282108031e-61, No Iterations 23
DILUPBiCGStab:  Solving for ILambda_66_0, Initial residual = 7.77760751903e-16, Final residual = 3.228383108e-61, No Iterations 24
DILUPBiCGStab:  Solving for ILambda_67_0, Initial residual = 8.37062868819e-16, Final residual = 3.28426338745e-61, No Iterations 24
DILUPBiCGStab:  Solving for ILambda_68_0, Initial residual = 8.03950027834e-16, Final residual = 6.03220898032e-62, No Iterations 24
DILUPBiCGStab:  Solving for ILambda_69_0, Initial residual = 8.77706792229e-16, Final residual = 4.72009242436e-62, No Iterations 25
DILUPBiCGStab:  Solving for ILambda_70_0, Initial residual = 8.42175056542e-16, Final residual = 3.39443060256e-61, No Iterations 24
DILUPBiCGStab:  Solving for ILambda_71_0, Initial residual = 9.04071508027e-16, Final residual = 5.43789433888e-61, No Iterations 23
DILUPBiCGStab:  Solving for ILambda_72_0, Initial residual = 8.24646578513e-16, Final residual = 9.78586766009e-61, No Iterations 40
DILUPBiCGStab:  Solving for ILambda_73_0, Initial residual = 1.07096364276e-15, Final residual = 5.47972500561e-61, No Iterations 56
DILUPBiCGStab:  Solving for ILambda_74_0, Initial residual = 1.14164186025e-15, Final residual = 4.6361933084e-61, No Iterations 69
DILUPBiCGStab:  Solving for ILambda_75_0, Initial residual = 1.31173244775e-15, Final residual = 2.24024378035e-61, No Iterations 78
DILUPBiCGStab:  Solving for ILambda_76_0, Initial residual = 1.20945210966e-15, Final residual = 6.36538091332e-61, No Iterations 73
DILUPBiCGStab:  Solving for ILambda_77_0, Initial residual = 1.25430837446e-15, Final residual = 6.04659088953e-61, No Iterations 66
DILUPBiCGStab:  Solving for ILambda_78_0, Initial residual = 1.25050112963e-15, Final residual = 8.12055311419e-61, No Iterations 60
DILUPBiCGStab:  Solving for ILambda_79_0, Initial residual = 9.93019648373e-16, Final residual = 2.86277577102e-61, No Iterations 41
DILUPBiCGStab:  Solving for ILambda_80_0, Initial residual = 8.92354725239e-16, Final residual = 2.69833361364e-74, No Iterations 2
DILUPBiCGStab:  Solving for ILambda_81_0, Initial residual = 8.17151102435e-16, Final residual = 5.5975540073e-61, No Iterations 2
DILUPBiCGStab:  Solving for ILambda_82_0, Initial residual = 8.76466773557e-16, Final residual = 2.80851771846e-61, No Iterations 2
DILUPBiCGStab:  Solving for ILambda_83_0, Initial residual = 8.22482111984e-16, Final residual = 4.23137732219e-74, No Iterations 2
DILUPBiCGStab:  Solving for ILambda_84_0, Initial residual = 7.54963766636e-16, Final residual = 2.71555846799e-75, No Iterations 2
DILUPBiCGStab:  Solving for ILambda_85_0, Initial residual = 7.74292107294e-16, Final residual = 4.89383241436e-61, No Iterations 2
DILUPBiCGStab:  Solving for ILambda_86_0, Initial residual = 7.71899258763e-16, Final residual = 4.27560946585e-61, No Iterations 2
DILUPBiCGStab:  Solving for ILambda_87_0, Initial residual = 7.20490363772e-16, Final residual = 3.90731873013e-74, No Iterations 2
DILUPBiCGStab:  Solving for ILambda_88_0, Initial residual = 1.12994513259e-15, Final residual = 4.61775713621e-61, No Iterations 41
DILUPBiCGStab:  Solving for ILambda_89_0, Initial residual = 1.21765108729e-15, Final residual = 3.79779956884e-61, No Iterations 58
DILUPBiCGStab:  Solving for ILambda_90_0, Initial residual = 1.27130424442e-15, Final residual = 3.68141579434e-61, No Iterations 69
DILUPBiCGStab:  Solving for ILambda_91_0, Initial residual = 1.31760218388e-15, Final residual = 4.29697459834e-61, No Iterations 79
DILUPBiCGStab:  Solving for ILambda_92_0, Initial residual = 1.24642165346e-15, Final residual = 2.98882845016e-61, No Iterations 71
DILUPBiCGStab:  Solving for ILambda_93_0, Initial residual = 1.36835406103e-15, Final residual = 3.57942319932e-61, No Iterations 73
DILUPBiCGStab:  Solving for ILambda_94_0, Initial residual = 9.05401774768e-16, Final residual = 8.26150812481e-61, No Iterations 59
DILUPBiCGStab:  Solving for ILambda_95_0, Initial residual = 7.88544801348e-16, Final residual = 5.93480945488e-61, No Iterations 42
DILUPBiCGStab:  Solving for ILambda_96_0, Initial residual = 1.74514527468e-16, Final residual = 4.98870586699e-62, No Iterations 19
DILUPBiCGStab:  Solving for ILambda_97_0, Initial residual = 1.79773878181e-16, Final residual = 3.98980992419e-62, No Iterations 20
DILUPBiCGStab:  Solving for ILambda_98_0, Initial residual = 1.68667735756e-16, Final residual = 2.9599454382e-61, No Iterations 20
DILUPBiCGStab:  Solving for ILambda_99_0, Initial residual = 1.91348341803e-16, Final residual = 4.20765962135e-61, No Iterations 20
DILUPBiCGStab:  Solving for ILambda_100_0, Initial residual = 1.89084980556e-16, Final residual = 1.49591711498e-61, No Iterations 21
DILUPBiCGStab:  Solving for ILambda_101_0, Initial residual = 1.8817357703e-16, Final residual = 3.84585199203e-62, No Iterations 20
DILUPBiCGStab:  Solving for ILambda_102_0, Initial residual = 1.9764223112e-16, Final residual = 4.09029436955e-62, No Iterations 19
DILUPBiCGStab:  Solving for ILambda_103_0, Initial residual = 1.8406720489e-16, Final residual = 3.08074795223e-61, No Iterations 19
DILUPBiCGStab:  Solving for ILambda_104_0, Initial residual = 1.85342723686e-16, Final residual = 2.52680412828e-61, No Iterations 38
DILUPBiCGStab:  Solving for ILambda_105_0, Initial residual = 2.22637143534e-16, Final residual = 4.15223786589e-61, No Iterations 59
DILUPBiCGStab:  Solving for ILambda_106_0, Initial residual = 2.48132116933e-16, Final residual = 6.18688412158e-61, No Iterations 68
DILUPBiCGStab:  Solving for ILambda_107_0, Initial residual = 2.57547956357e-16, Final residual = 8.12505632981e-62, No Iterations 77
DILUPBiCGStab:  Solving for ILambda_108_0, Initial residual = 2.64946853403e-16, Final residual = 4.51978777785e-61, No Iterations 74
DILUPBiCGStab:  Solving for ILambda_109_0, Initial residual = 3.06049091691e-16, Final residual = 2.36459019545e-61, No Iterations 67
DILUPBiCGStab:  Solving for ILambda_110_0, Initial residual = 2.81476292952e-16, Final residual = 3.28423578294e-62, No Iterations 59
DILUPBiCGStab:  Solving for ILambda_111_0, Initial residual = 1.93019779389e-16, Final residual = 8.16906299142e-61, No Iterations 38
DILUPBiCGStab:  Solving for ILambda_112_0, Initial residual = 1.82970950033e-16, Final residual = 3.10506803027e-62, No Iterations 2
DILUPBiCGStab:  Solving for ILambda_113_0, Initial residual = 1.96858572801e-16, Final residual = 8.67747450513e-61, No Iterations 2
DILUPBiCGStab:  Solving for ILambda_114_0, Initial residual = 1.88373852113e-16, Final residual = 6.17733644799e-62, No Iterations 2
DILUPBiCGStab:  Solving for ILambda_115_0, Initial residual = 1.94330947022e-16, Final residual = 9.66043292126e-62, No Iterations 2
DILUPBiCGStab:  Solving for ILambda_116_0, Initial residual = 1.94292961252e-16, Final residual = 7.88995765202e-61, No Iterations 2
DILUPBiCGStab:  Solving for ILambda_117_0, Initial residual = 1.69836095591e-16, Final residual = 3.06804599511e-61, No Iterations 2
DILUPBiCGStab:  Solving for ILambda_118_0, Initial residual = 1.80065612289e-16, Final residual = 4.75550923112e-62, No Iterations 2
DILUPBiCGStab:  Solving for ILambda_119_0, Initial residual = 1.72518532501e-16, Final residual = 1.07868445329e-61, No Iterations 2
DILUPBiCGStab:  Solving for ILambda_120_0, Initial residual = 1.93441000781e-16, Final residual = 9.30672015884e-62, No Iterations 38
DILUPBiCGStab:  Solving for ILambda_121_0, Initial residual = 2.53840880937e-16, Final residual = 2.44663133237e-61, No Iterations 58
DILUPBiCGStab:  Solving for ILambda_122_0, Initial residual = 2.71736172329e-16, Final residual = 6.66632726335e-61, No Iterations 67
DILUPBiCGStab:  Solving for ILambda_123_0, Initial residual = 2.82410810862e-16, Final residual = 3.63633944942e-61, No Iterations 71
DILUPBiCGStab:  Solving for ILambda_124_0, Initial residual = 2.95509995222e-16, Final residual = 3.59238026912e-62, No Iterations 75
DILUPBiCGStab:  Solving for ILambda_125_0, Initial residual = 2.5567603124e-16, Final residual = 4.94232478873e-61, No Iterations 66
DILUPBiCGStab:  Solving for ILambda_126_0, Initial residual = 2.38761677726e-16, Final residual = 7.4968168137e-61, No Iterations 58
DILUPBiCGStab:  Solving for ILambda_127_0, Initial residual = 1.90257121973e-16, Final residual = 5.65597540766e-61, No Iterations 39
min/max(T) = 1000, 1000
ExecutionTime = 300.26 s  ClockTime = 300 s

writeObjects writeObjects1.writeObjects write:
    writing object a
    writing object qem
End

