/*---------------------------------------------------------------------------*\
| =========                 |                                                 |
| \\      /  F ield         | OpenFOAM: The Open Source CFD Toolbox           |
|  \\    /   O peration     | Version:  2306                                  |
|   \\  /    A nd           | Website:  www.openfoam.com                      |
|    \\/     M anipulation  |                                                 |
\*---------------------------------------------------------------------------*/
Build  : _fbf00d6b-20230626 OPENFOAM=2306 version=2306
Arch   : "LSB;label=32;scalar=64"
Exec   : fireRADFoam_MaCFP
Date   : Mar 12 2024
Time   : 19:30:27
Host   : pop-os
PID    : 173170
I/O    : uncollated
Case   : /home/rafay/Desktop/Study/Radiative_Heat_Transfer/Local_copy_RHT2324/01_Projects/02_Rafay/Case_1_q1D_SolidAngle/new_case3/th_4-ph_8/tau_0.05/res_2
nProcs : 1
trapFpe: Floating point exception trapping enabled (FOAM_SIGFPE).
fileModificationChecking : Monitoring run-time modified files using timeStampMaster (fileModificationSkew 5, maxFileModificationPolls 20)
allowSystemOperations : Allowing user-supplied system call operations

// * * * * * * * * * * * * * * * * * * * * * * * * * * * * * * * * * * * * * //
Create time

Create mesh for time = 0


PIMPLE: no residual control data found. Calculations will employ 10 corrector loops

Reading thermophysical properties

Selecting thermodynamics package 
{
    type            hePsiThermo;
    mixture         singleStepReactingMixture;
    transport       sutherland;
    thermo          janaf;
    energy          sensibleEnthalpy;
    equationOfState perfectGas;
    specie          specie;
}

Selecting chemistryReader foamChemistryReader
    elements not defined in "/home/rafay/Desktop/Study/Radiative_Heat_Transfer/Local_copy_RHT2324/01_Projects/02_Rafay/Case_1_q1D_SolidAngle/new_case3/th_4-ph_8/tau_0.05/res_2/constant/reactions"
Fuel heat of combustion :47168962.4726
stoichiometric air-fuel ratio :14.6914056505
stoichiometric oxygen-fuel ratio :3.42181919285
Maximum products mass concentrations:
    H2O: 0.0818486943001
    CO2: 0.199950099979
    N2: 0.718201205721
Creating component thermo properties:
    multi-component carrier - 6 species
    no liquid components
    no solid components
Creating field rho


Reading field U

Reading/calculating face flux field phi

Selecting radiationModel fvDOM
Selecting absorptionEmissionModel constantAbsorptionEmission
Selecting scatterModel none
Selecting sootModel none
fvDOM : Allocated 128 rays with average orientation:
	I0 : dAve : 	(0.00274192284156 0.0278392098 0.0490873852123) : omega : 	0.0575094490319 : d : 	(0.0375095356919 0.38084070704 0.923879532511)
	I1 : dAve : 	(0.00812039796756 0.0267693645798 0.0490873852123) : omega : 	0.0575094490319 : d : 	(0.111087136655 0.366205212247 0.923879532511)
	I2 : dAve : 	(0.0131868107536 0.0246707876912 0.0490873852123) : omega : 	0.0575094490319 : d : 	(0.180395721254 0.337496656517 0.923879532511)
	I3 : dAve : 	(0.0177464617977 0.0216241262672 0.0490873852123) : omega : 	0.0575094490319 : d : 	(0.242771799453 0.295818293547 0.923879532511)
	I4 : dAve : 	(0.0216241262672 0.0177464617977 0.0490873852123) : omega : 	0.0575094490319 : d : 	(0.295818293547 0.242771799453 0.923879532511)
	I5 : dAve : 	(0.0246707876912 0.0131868107536 0.0490873852123) : omega : 	0.0575094490319 : d : 	(0.337496656517 0.180395721254 0.923879532511)
	I6 : dAve : 	(0.0267693645798 0.00812039796756 0.0490873852123) : omega : 	0.0575094490319 : d : 	(0.366205212247 0.111087136655 0.923879532511)
	I7 : dAve : 	(0.0278392098 0.00274192284156 0.0490873852123) : omega : 	0.0575094490319 : d : 	(0.38084070704 0.0375095356919 0.923879532511)
	I8 : dAve : 	(0.0278392098 -0.00274192284156 0.0490873852123) : omega : 	0.0575094490319 : d : 	(0.38084070704 -0.0375095356919 0.923879532511)
	I9 : dAve : 	(0.0267693645798 -0.00812039796756 0.0490873852123) : omega : 	0.0575094490319 : d : 	(0.366205212247 -0.111087136655 0.923879532511)
	I10 : dAve : 	(0.0246707876912 -0.0131868107536 0.0490873852123) : omega : 	0.0575094490319 : d : 	(0.337496656517 -0.180395721254 0.923879532511)
	I11 : dAve : 	(0.0216241262672 -0.0177464617977 0.0490873852123) : omega : 	0.0575094490319 : d : 	(0.295818293547 -0.242771799453 0.923879532511)
	I12 : dAve : 	(0.0177464617977 -0.0216241262672 0.0490873852123) : omega : 	0.0575094490319 : d : 	(0.242771799453 -0.295818293547 0.923879532511)
	I13 : dAve : 	(0.0131868107536 -0.0246707876912 0.0490873852123) : omega : 	0.0575094490319 : d : 	(0.180395721254 -0.337496656517 0.923879532511)
	I14 : dAve : 	(0.00812039796756 -0.0267693645798 0.0490873852123) : omega : 	0.0575094490319 : d : 	(0.111087136655 -0.366205212247 0.923879532511)
	I15 : dAve : 	(0.00274192284156 -0.0278392098 0.0490873852123) : omega : 	0.0575094490319 : d : 	(0.0375095356919 -0.38084070704 0.923879532511)
	I16 : dAve : 	(-0.00274192284156 -0.0278392098 0.0490873852123) : omega : 	0.0575094490319 : d : 	(-0.0375095356919 -0.38084070704 0.923879532511)
	I17 : dAve : 	(-0.00812039796756 -0.0267693645798 0.0490873852123) : omega : 	0.0575094490319 : d : 	(-0.111087136655 -0.366205212247 0.923879532511)
	I18 : dAve : 	(-0.0131868107536 -0.0246707876912 0.0490873852123) : omega : 	0.0575094490319 : d : 	(-0.180395721254 -0.337496656517 0.923879532511)
	I19 : dAve : 	(-0.0177464617977 -0.0216241262672 0.0490873852123) : omega : 	0.0575094490319 : d : 	(-0.242771799453 -0.295818293547 0.923879532511)
	I20 : dAve : 	(-0.0216241262672 -0.0177464617977 0.0490873852123) : omega : 	0.0575094490319 : d : 	(-0.295818293547 -0.242771799453 0.923879532511)
	I21 : dAve : 	(-0.0246707876912 -0.0131868107536 0.0490873852123) : omega : 	0.0575094490319 : d : 	(-0.337496656517 -0.180395721254 0.923879532511)
	I22 : dAve : 	(-0.0267693645798 -0.00812039796756 0.0490873852123) : omega : 	0.0575094490319 : d : 	(-0.366205212247 -0.111087136655 0.923879532511)
	I23 : dAve : 	(-0.0278392098 -0.00274192284156 0.0490873852123) : omega : 	0.0575094490319 : d : 	(-0.38084070704 -0.0375095356919 0.923879532511)
	I24 : dAve : 	(-0.0278392098 0.00274192284156 0.0490873852123) : omega : 	0.0575094490319 : d : 	(-0.38084070704 0.0375095356919 0.923879532511)
	I25 : dAve : 	(-0.0267693645798 0.00812039796756 0.0490873852123) : omega : 	0.0575094490319 : d : 	(-0.366205212247 0.111087136655 0.923879532511)
	I26 : dAve : 	(-0.0246707876912 0.0131868107536 0.0490873852123) : omega : 	0.0575094490319 : d : 	(-0.337496656517 0.180395721254 0.923879532511)
	I27 : dAve : 	(-0.0216241262672 0.0177464617977 0.0490873852123) : omega : 	0.0575094490319 : d : 	(-0.295818293547 0.242771799453 0.923879532511)
	I28 : dAve : 	(-0.0177464617977 0.0216241262672 0.0490873852123) : omega : 	0.0575094490319 : d : 	(-0.242771799453 0.295818293547 0.923879532511)
	I29 : dAve : 	(-0.0131868107536 0.0246707876912 0.0490873852123) : omega : 	0.0575094490319 : d : 	(-0.180395721254 0.337496656517 0.923879532511)
	I30 : dAve : 	(-0.00812039796756 0.0267693645798 0.0490873852123) : omega : 	0.0575094490319 : d : 	(-0.111087136655 0.366205212247 0.923879532511)
	I31 : dAve : 	(-0.00274192284156 0.0278392098 0.0490873852123) : omega : 	0.0575094490319 : d : 	(-0.0375095356919 0.38084070704 0.923879532511)
	I32 : dAve : 	(0.0123492826399 0.125384370808 0.0490873852123) : omega : 	0.138840091817 : d : 	(0.0905560297858 0.91943080004 0.382683432365)
	I33 : dAve : 	(0.0365732719135 0.120565919754 0.0490873852123) : omega : 	0.138840091817 : d : 	(0.268188071917 0.884097590017 0.382683432365)
	I34 : dAve : 	(0.059391770858 0.111114188018 0.0490873852123) : omega : 	0.138840091817 : d : 	(0.435513796846 0.814789005418 0.382683432365)
	I35 : dAve : 	(0.0799278773557 0.0973924003507 0.0490873852123) : omega : 	0.138840091817 : d : 	(0.586102970801 0.714168536279 0.382683432365)
	I36 : dAve : 	(0.0973924003507 0.0799278773557 0.0490873852123) : omega : 	0.138840091817 : d : 	(0.714168536279 0.586102970801 0.382683432365)
	I37 : dAve : 	(0.111114188018 0.059391770858 0.0490873852123) : omega : 	0.138840091817 : d : 	(0.814789005418 0.435513796846 0.382683432365)
	I38 : dAve : 	(0.120565919754 0.0365732719135 0.0490873852123) : omega : 	0.138840091817 : d : 	(0.884097590017 0.268188071917 0.382683432365)
	I39 : dAve : 	(0.125384370808 0.0123492826399 0.0490873852123) : omega : 	0.138840091817 : d : 	(0.91943080004 0.0905560297858 0.382683432365)
	I40 : dAve : 	(0.125384370808 -0.0123492826399 0.0490873852123) : omega : 	0.138840091817 : d : 	(0.91943080004 -0.0905560297858 0.382683432365)
	I41 : dAve : 	(0.120565919754 -0.0365732719135 0.0490873852123) : omega : 	0.138840091817 : d : 	(0.884097590017 -0.268188071917 0.382683432365)
	I42 : dAve : 	(0.111114188018 -0.059391770858 0.0490873852123) : omega : 	0.138840091817 : d : 	(0.814789005418 -0.435513796846 0.382683432365)
	I43 : dAve : 	(0.0973924003507 -0.0799278773557 0.0490873852123) : omega : 	0.138840091817 : d : 	(0.714168536279 -0.586102970801 0.382683432365)
	I44 : dAve : 	(0.0799278773557 -0.0973924003507 0.0490873852123) : omega : 	0.138840091817 : d : 	(0.586102970801 -0.714168536279 0.382683432365)
	I45 : dAve : 	(0.059391770858 -0.111114188018 0.0490873852123) : omega : 	0.138840091817 : d : 	(0.435513796846 -0.814789005418 0.382683432365)
	I46 : dAve : 	(0.0365732719135 -0.120565919754 0.0490873852123) : omega : 	0.138840091817 : d : 	(0.268188071917 -0.884097590017 0.382683432365)
	I47 : dAve : 	(0.0123492826399 -0.125384370808 0.0490873852123) : omega : 	0.138840091817 : d : 	(0.0905560297858 -0.91943080004 0.382683432365)
	I48 : dAve : 	(-0.0123492826399 -0.125384370808 0.0490873852123) : omega : 	0.138840091817 : d : 	(-0.0905560297858 -0.91943080004 0.382683432365)
	I49 : dAve : 	(-0.0365732719135 -0.120565919754 0.0490873852123) : omega : 	0.138840091817 : d : 	(-0.268188071917 -0.884097590017 0.382683432365)
	I50 : dAve : 	(-0.059391770858 -0.111114188018 0.0490873852123) : omega : 	0.138840091817 : d : 	(-0.435513796846 -0.814789005418 0.382683432365)
	I51 : dAve : 	(-0.0799278773557 -0.0973924003507 0.0490873852123) : omega : 	0.138840091817 : d : 	(-0.586102970801 -0.714168536279 0.382683432365)
	I52 : dAve : 	(-0.0973924003507 -0.0799278773557 0.0490873852123) : omega : 	0.138840091817 : d : 	(-0.714168536279 -0.586102970801 0.382683432365)
	I53 : dAve : 	(-0.111114188018 -0.059391770858 0.0490873852123) : omega : 	0.138840091817 : d : 	(-0.814789005418 -0.435513796846 0.382683432365)
	I54 : dAve : 	(-0.120565919754 -0.0365732719135 0.0490873852123) : omega : 	0.138840091817 : d : 	(-0.884097590017 -0.268188071917 0.382683432365)
	I55 : dAve : 	(-0.125384370808 -0.0123492826399 0.0490873852123) : omega : 	0.138840091817 : d : 	(-0.91943080004 -0.0905560297858 0.382683432365)
	I56 : dAve : 	(-0.125384370808 0.0123492826399 0.0490873852123) : omega : 	0.138840091817 : d : 	(-0.91943080004 0.0905560297858 0.382683432365)
	I57 : dAve : 	(-0.120565919754 0.0365732719135 0.0490873852123) : omega : 	0.138840091817 : d : 	(-0.884097590017 0.268188071917 0.382683432365)
	I58 : dAve : 	(-0.111114188018 0.059391770858 0.0490873852123) : omega : 	0.138840091817 : d : 	(-0.814789005418 0.435513796846 0.382683432365)
	I59 : dAve : 	(-0.0973924003507 0.0799278773557 0.0490873852123) : omega : 	0.138840091817 : d : 	(-0.714168536279 0.586102970801 0.382683432365)
	I60 : dAve : 	(-0.0799278773557 0.0973924003507 0.0490873852123) : omega : 	0.138840091817 : d : 	(-0.586102970801 0.714168536279 0.382683432365)
	I61 : dAve : 	(-0.059391770858 0.111114188018 0.0490873852123) : omega : 	0.138840091817 : d : 	(-0.435513796846 0.814789005418 0.382683432365)
	I62 : dAve : 	(-0.0365732719135 0.120565919754 0.0490873852123) : omega : 	0.138840091817 : d : 	(-0.268188071917 0.884097590017 0.382683432365)
	I63 : dAve : 	(-0.0123492826399 0.125384370808 0.0490873852123) : omega : 	0.138840091817 : d : 	(-0.0905560297858 0.91943080004 0.382683432365)
	I64 : dAve : 	(0.0123492826399 0.125384370808 -0.0490873852123) : omega : 	0.138840091817 : d : 	(0.0905560297858 0.91943080004 -0.382683432365)
	I65 : dAve : 	(0.0365732719135 0.120565919754 -0.0490873852123) : omega : 	0.138840091817 : d : 	(0.268188071917 0.884097590017 -0.382683432365)
	I66 : dAve : 	(0.059391770858 0.111114188018 -0.0490873852123) : omega : 	0.138840091817 : d : 	(0.435513796846 0.814789005418 -0.382683432365)
	I67 : dAve : 	(0.0799278773557 0.0973924003507 -0.0490873852123) : omega : 	0.138840091817 : d : 	(0.586102970801 0.714168536279 -0.382683432365)
	I68 : dAve : 	(0.0973924003507 0.0799278773557 -0.0490873852123) : omega : 	0.138840091817 : d : 	(0.714168536279 0.586102970801 -0.382683432365)
	I69 : dAve : 	(0.111114188018 0.059391770858 -0.0490873852123) : omega : 	0.138840091817 : d : 	(0.814789005418 0.435513796846 -0.382683432365)
	I70 : dAve : 	(0.120565919754 0.0365732719135 -0.0490873852123) : omega : 	0.138840091817 : d : 	(0.884097590017 0.268188071917 -0.382683432365)
	I71 : dAve : 	(0.125384370808 0.0123492826399 -0.0490873852123) : omega : 	0.138840091817 : d : 	(0.91943080004 0.0905560297858 -0.382683432365)
	I72 : dAve : 	(0.125384370808 -0.0123492826399 -0.0490873852123) : omega : 	0.138840091817 : d : 	(0.91943080004 -0.0905560297858 -0.382683432365)
	I73 : dAve : 	(0.120565919754 -0.0365732719135 -0.0490873852123) : omega : 	0.138840091817 : d : 	(0.884097590017 -0.268188071917 -0.382683432365)
	I74 : dAve : 	(0.111114188018 -0.059391770858 -0.0490873852123) : omega : 	0.138840091817 : d : 	(0.814789005418 -0.435513796846 -0.382683432365)
	I75 : dAve : 	(0.0973924003507 -0.0799278773557 -0.0490873852123) : omega : 	0.138840091817 : d : 	(0.714168536279 -0.586102970801 -0.382683432365)
	I76 : dAve : 	(0.0799278773557 -0.0973924003507 -0.0490873852123) : omega : 	0.138840091817 : d : 	(0.586102970801 -0.714168536279 -0.382683432365)
	I77 : dAve : 	(0.059391770858 -0.111114188018 -0.0490873852123) : omega : 	0.138840091817 : d : 	(0.435513796846 -0.814789005418 -0.382683432365)
	I78 : dAve : 	(0.0365732719135 -0.120565919754 -0.0490873852123) : omega : 	0.138840091817 : d : 	(0.268188071917 -0.884097590017 -0.382683432365)
	I79 : dAve : 	(0.0123492826399 -0.125384370808 -0.0490873852123) : omega : 	0.138840091817 : d : 	(0.0905560297858 -0.91943080004 -0.382683432365)
	I80 : dAve : 	(-0.0123492826399 -0.125384370808 -0.0490873852123) : omega : 	0.138840091817 : d : 	(-0.0905560297858 -0.91943080004 -0.382683432365)
	I81 : dAve : 	(-0.0365732719135 -0.120565919754 -0.0490873852123) : omega : 	0.138840091817 : d : 	(-0.268188071917 -0.884097590017 -0.382683432365)
	I82 : dAve : 	(-0.059391770858 -0.111114188018 -0.0490873852123) : omega : 	0.138840091817 : d : 	(-0.435513796846 -0.814789005418 -0.382683432365)
	I83 : dAve : 	(-0.0799278773557 -0.0973924003507 -0.0490873852123) : omega : 	0.138840091817 : d : 	(-0.586102970801 -0.714168536279 -0.382683432365)
	I84 : dAve : 	(-0.0973924003507 -0.0799278773557 -0.0490873852123) : omega : 	0.138840091817 : d : 	(-0.714168536279 -0.586102970801 -0.382683432365)
	I85 : dAve : 	(-0.111114188018 -0.059391770858 -0.0490873852123) : omega : 	0.138840091817 : d : 	(-0.814789005418 -0.435513796846 -0.382683432365)
	I86 : dAve : 	(-0.120565919754 -0.0365732719135 -0.0490873852123) : omega : 	0.138840091817 : d : 	(-0.884097590017 -0.268188071917 -0.382683432365)
	I87 : dAve : 	(-0.125384370808 -0.0123492826399 -0.0490873852123) : omega : 	0.138840091817 : d : 	(-0.91943080004 -0.0905560297858 -0.382683432365)
	I88 : dAve : 	(-0.125384370808 0.0123492826399 -0.0490873852123) : omega : 	0.138840091817 : d : 	(-0.91943080004 0.0905560297858 -0.382683432365)
	I89 : dAve : 	(-0.120565919754 0.0365732719135 -0.0490873852123) : omega : 	0.138840091817 : d : 	(-0.884097590017 0.268188071917 -0.382683432365)
	I90 : dAve : 	(-0.111114188018 0.059391770858 -0.0490873852123) : omega : 	0.138840091817 : d : 	(-0.814789005418 0.435513796846 -0.382683432365)
	I91 : dAve : 	(-0.0973924003507 0.0799278773557 -0.0490873852123) : omega : 	0.138840091817 : d : 	(-0.714168536279 0.586102970801 -0.382683432365)
	I92 : dAve : 	(-0.0799278773557 0.0973924003507 -0.0490873852123) : omega : 	0.138840091817 : d : 	(-0.586102970801 0.714168536279 -0.382683432365)
	I93 : dAve : 	(-0.059391770858 0.111114188018 -0.0490873852123) : omega : 	0.138840091817 : d : 	(-0.435513796846 0.814789005418 -0.382683432365)
	I94 : dAve : 	(-0.0365732719135 0.120565919754 -0.0490873852123) : omega : 	0.138840091817 : d : 	(-0.268188071917 0.884097590017 -0.382683432365)
	I95 : dAve : 	(-0.0123492826399 0.125384370808 -0.0490873852123) : omega : 	0.138840091817 : d : 	(-0.0905560297858 0.91943080004 -0.382683432365)
	I96 : dAve : 	(0.00274192284156 0.0278392098 -0.0490873852123) : omega : 	0.0575094490319 : d : 	(0.0375095356919 0.38084070704 -0.923879532511)
	I97 : dAve : 	(0.00812039796756 0.0267693645798 -0.0490873852123) : omega : 	0.0575094490319 : d : 	(0.111087136655 0.366205212247 -0.923879532511)
	I98 : dAve : 	(0.0131868107536 0.0246707876912 -0.0490873852123) : omega : 	0.0575094490319 : d : 	(0.180395721254 0.337496656517 -0.923879532511)
	I99 : dAve : 	(0.0177464617977 0.0216241262672 -0.0490873852123) : omega : 	0.0575094490319 : d : 	(0.242771799453 0.295818293547 -0.923879532511)
	I100 : dAve : 	(0.0216241262672 0.0177464617977 -0.0490873852123) : omega : 	0.0575094490319 : d : 	(0.295818293547 0.242771799453 -0.923879532511)
	I101 : dAve : 	(0.0246707876912 0.0131868107536 -0.0490873852123) : omega : 	0.0575094490319 : d : 	(0.337496656517 0.180395721254 -0.923879532511)
	I102 : dAve : 	(0.0267693645798 0.00812039796756 -0.0490873852123) : omega : 	0.0575094490319 : d : 	(0.366205212247 0.111087136655 -0.923879532511)
	I103 : dAve : 	(0.0278392098 0.00274192284156 -0.0490873852123) : omega : 	0.0575094490319 : d : 	(0.38084070704 0.0375095356919 -0.923879532511)
	I104 : dAve : 	(0.0278392098 -0.00274192284156 -0.0490873852123) : omega : 	0.0575094490319 : d : 	(0.38084070704 -0.0375095356919 -0.923879532511)
	I105 : dAve : 	(0.0267693645798 -0.00812039796756 -0.0490873852123) : omega : 	0.0575094490319 : d : 	(0.366205212247 -0.111087136655 -0.923879532511)
	I106 : dAve : 	(0.0246707876912 -0.0131868107536 -0.0490873852123) : omega : 	0.0575094490319 : d : 	(0.337496656517 -0.180395721254 -0.923879532511)
	I107 : dAve : 	(0.0216241262672 -0.0177464617977 -0.0490873852123) : omega : 	0.0575094490319 : d : 	(0.295818293547 -0.242771799453 -0.923879532511)
	I108 : dAve : 	(0.0177464617977 -0.0216241262672 -0.0490873852123) : omega : 	0.0575094490319 : d : 	(0.242771799453 -0.295818293547 -0.923879532511)
	I109 : dAve : 	(0.0131868107536 -0.0246707876912 -0.0490873852123) : omega : 	0.0575094490319 : d : 	(0.180395721254 -0.337496656517 -0.923879532511)
	I110 : dAve : 	(0.00812039796756 -0.0267693645798 -0.0490873852123) : omega : 	0.0575094490319 : d : 	(0.111087136655 -0.366205212247 -0.923879532511)
	I111 : dAve : 	(0.00274192284156 -0.0278392098 -0.0490873852123) : omega : 	0.0575094490319 : d : 	(0.0375095356919 -0.38084070704 -0.923879532511)
	I112 : dAve : 	(-0.00274192284156 -0.0278392098 -0.0490873852123) : omega : 	0.0575094490319 : d : 	(-0.0375095356919 -0.38084070704 -0.923879532511)
	I113 : dAve : 	(-0.00812039796756 -0.0267693645798 -0.0490873852123) : omega : 	0.0575094490319 : d : 	(-0.111087136655 -0.366205212247 -0.923879532511)
	I114 : dAve : 	(-0.0131868107536 -0.0246707876912 -0.0490873852123) : omega : 	0.0575094490319 : d : 	(-0.180395721254 -0.337496656517 -0.923879532511)
	I115 : dAve : 	(-0.0177464617977 -0.0216241262672 -0.0490873852123) : omega : 	0.0575094490319 : d : 	(-0.242771799453 -0.295818293547 -0.923879532511)
	I116 : dAve : 	(-0.0216241262672 -0.0177464617977 -0.0490873852123) : omega : 	0.0575094490319 : d : 	(-0.295818293547 -0.242771799453 -0.923879532511)
	I117 : dAve : 	(-0.0246707876912 -0.0131868107536 -0.0490873852123) : omega : 	0.0575094490319 : d : 	(-0.337496656517 -0.180395721254 -0.923879532511)
	I118 : dAve : 	(-0.0267693645798 -0.00812039796756 -0.0490873852123) : omega : 	0.0575094490319 : d : 	(-0.366205212247 -0.111087136655 -0.923879532511)
	I119 : dAve : 	(-0.0278392098 -0.00274192284156 -0.0490873852123) : omega : 	0.0575094490319 : d : 	(-0.38084070704 -0.0375095356919 -0.923879532511)
	I120 : dAve : 	(-0.0278392098 0.00274192284156 -0.0490873852123) : omega : 	0.0575094490319 : d : 	(-0.38084070704 0.0375095356919 -0.923879532511)
	I121 : dAve : 	(-0.0267693645798 0.00812039796756 -0.0490873852123) : omega : 	0.0575094490319 : d : 	(-0.366205212247 0.111087136655 -0.923879532511)
	I122 : dAve : 	(-0.0246707876912 0.0131868107536 -0.0490873852123) : omega : 	0.0575094490319 : d : 	(-0.337496656517 0.180395721254 -0.923879532511)
	I123 : dAve : 	(-0.0216241262672 0.0177464617977 -0.0490873852123) : omega : 	0.0575094490319 : d : 	(-0.295818293547 0.242771799453 -0.923879532511)
	I124 : dAve : 	(-0.0177464617977 0.0216241262672 -0.0490873852123) : omega : 	0.0575094490319 : d : 	(-0.242771799453 0.295818293547 -0.923879532511)
	I125 : dAve : 	(-0.0131868107536 0.0246707876912 -0.0490873852123) : omega : 	0.0575094490319 : d : 	(-0.180395721254 0.337496656517 -0.923879532511)
	I126 : dAve : 	(-0.00812039796756 0.0267693645798 -0.0490873852123) : omega : 	0.0575094490319 : d : 	(-0.111087136655 0.366205212247 -0.923879532511)
	I127 : dAve : 	(-0.00274192284156 0.0278392098 -0.0490873852123) : omega : 	0.0575094490319 : d : 	(-0.0375095356919 0.38084070704 -0.923879532511)
Total omega : 12.5663706144

Courant Number mean: 0 max: 0

Starting time loop

Sampled set:
    data -> csv

Sampled set:
    data -> csv

Sampled surface:
    yNormal -> ensight
        sampledCuttingPlane: yNormal : plane:(0 1 0) (0 0 0) offsets:(0)

Sampled surface:
    zNormal -> ensight
        sampledCuttingPlane: zNormal : plane:(0 0 1) (0 0 0) offsets:(0)

Sampled surface:
    patchAll -> ensight
        sampledPatch: patchAll : patches:(".*WW.*")

deltaT = 1
Time = 1

PIMPLE: iteration 1
Radiation solver iter: 0
DILUPBiCGStab:  Solving for ILambda_0_0, Initial residual = 1, Final residual = 9.98918535815e-75, No Iterations 3
DILUPBiCGStab:  Solving for ILambda_1_0, Initial residual = 1, Final residual = 1.74734821998e-74, No Iterations 3
DILUPBiCGStab:  Solving for ILambda_2_0, Initial residual = 1, Final residual = 5.93186405375e-74, No Iterations 3
DILUPBiCGStab:  Solving for ILambda_3_0, Initial residual = 1, Final residual = 1.09800908177e-74, No Iterations 3
DILUPBiCGStab:  Solving for ILambda_4_0, Initial residual = 1, Final residual = 1.49533700267e-74, No Iterations 3
DILUPBiCGStab:  Solving for ILambda_5_0, Initial residual = 1, Final residual = 2.01637059686e-74, No Iterations 3
DILUPBiCGStab:  Solving for ILambda_6_0, Initial residual = 1, Final residual = 5.6749229965e-75, No Iterations 3
DILUPBiCGStab:  Solving for ILambda_7_0, Initial residual = 1, Final residual = 9.88216353406e-75, No Iterations 3
DILUPBiCGStab:  Solving for ILambda_8_0, Initial residual = 1, Final residual = 4.9751102109e-61, No Iterations 39
DILUPBiCGStab:  Solving for ILambda_9_0, Initial residual = 1, Final residual = 5.78018728531e-61, No Iterations 54
DILUPBiCGStab:  Solving for ILambda_10_0, Initial residual = 1, Final residual = 7.06900535629e-61, No Iterations 61
DILUPBiCGStab:  Solving for ILambda_11_0, Initial residual = 1, Final residual = 5.12014017401e-61, No Iterations 62
DILUPBiCGStab:  Solving for ILambda_12_0, Initial residual = 1, Final residual = 2.97598072912e-61, No Iterations 63
DILUPBiCGStab:  Solving for ILambda_13_0, Initial residual = 1, Final residual = 2.37137625577e-61, No Iterations 61
DILUPBiCGStab:  Solving for ILambda_14_0, Initial residual = 1, Final residual = 9.60423725154e-61, No Iterations 53
DILUPBiCGStab:  Solving for ILambda_15_0, Initial residual = 1, Final residual = 2.44609289061e-61, No Iterations 37
DILUPBiCGStab:  Solving for ILambda_16_0, Initial residual = 1, Final residual = 5.90729061151e-61, No Iterations 20
DILUPBiCGStab:  Solving for ILambda_17_0, Initial residual = 1, Final residual = 4.09660023146e-61, No Iterations 23
DILUPBiCGStab:  Solving for ILambda_18_0, Initial residual = 1, Final residual = 4.04652540343e-63, No Iterations 22
DILUPBiCGStab:  Solving for ILambda_19_0, Initial residual = 1, Final residual = 1.5241950281e-61, No Iterations 23
DILUPBiCGStab:  Solving for ILambda_20_0, Initial residual = 1, Final residual = 6.0447606419e-62, No Iterations 24
DILUPBiCGStab:  Solving for ILambda_21_0, Initial residual = 1, Final residual = 3.37252106877e-61, No Iterations 26
DILUPBiCGStab:  Solving for ILambda_22_0, Initial residual = 1, Final residual = 9.89185914203e-61, No Iterations 22
DILUPBiCGStab:  Solving for ILambda_23_0, Initial residual = 1, Final residual = 1.12992507752e-61, No Iterations 22
DILUPBiCGStab:  Solving for ILambda_24_0, Initial residual = 1, Final residual = 6.86277914228e-62, No Iterations 37
DILUPBiCGStab:  Solving for ILambda_25_0, Initial residual = 1, Final residual = 2.5093501479e-61, No Iterations 53
DILUPBiCGStab:  Solving for ILambda_26_0, Initial residual = 1, Final residual = 4.86337152905e-61, No Iterations 60
DILUPBiCGStab:  Solving for ILambda_27_0, Initial residual = 1, Final residual = 7.80227775765e-61, No Iterations 64
DILUPBiCGStab:  Solving for ILambda_28_0, Initial residual = 1, Final residual = 8.40712672837e-61, No Iterations 61
DILUPBiCGStab:  Solving for ILambda_29_0, Initial residual = 1, Final residual = 8.52760212006e-61, No Iterations 60
DILUPBiCGStab:  Solving for ILambda_30_0, Initial residual = 1, Final residual = 9.37222637378e-61, No Iterations 55
DILUPBiCGStab:  Solving for ILambda_31_0, Initial residual = 1, Final residual = 5.73795365624e-61, No Iterations 39
DILUPBiCGStab:  Solving for ILambda_32_0, Initial residual = 1, Final residual = 1.95724562177e-72, No Iterations 3
DILUPBiCGStab:  Solving for ILambda_33_0, Initial residual = 1, Final residual = 5.69953805863e-72, No Iterations 3
DILUPBiCGStab:  Solving for ILambda_34_0, Initial residual = 1, Final residual = 1.0996316492e-73, No Iterations 3
DILUPBiCGStab:  Solving for ILambda_35_0, Initial residual = 1, Final residual = 2.49900072227e-73, No Iterations 3
DILUPBiCGStab:  Solving for ILambda_36_0, Initial residual = 1, Final residual = 1.33069126846e-74, No Iterations 3
DILUPBiCGStab:  Solving for ILambda_37_0, Initial residual = 1, Final residual = 1.85092792435e-74, No Iterations 3
DILUPBiCGStab:  Solving for ILambda_38_0, Initial residual = 1, Final residual = 1.11818022777e-73, No Iterations 3
DILUPBiCGStab:  Solving for ILambda_39_0, Initial residual = 1, Final residual = 3.13792250288e-74, No Iterations 3
DILUPBiCGStab:  Solving for ILambda_40_0, Initial residual = 1, Final residual = 1.45269454125e-61, No Iterations 39
DILUPBiCGStab:  Solving for ILambda_41_0, Initial residual = 1, Final residual = 3.97218982948e-61, No Iterations 54
DILUPBiCGStab:  Solving for ILambda_42_0, Initial residual = 1, Final residual = 3.22542910826e-61, No Iterations 62
DILUPBiCGStab:  Solving for ILambda_43_0, Initial residual = 1, Final residual = 4.52027854828e-61, No Iterations 65
DILUPBiCGStab:  Solving for ILambda_44_0, Initial residual = 1, Final residual = 1.60293408507e-61, No Iterations 66
DILUPBiCGStab:  Solving for ILambda_45_0, Initial residual = 1, Final residual = 4.88834635735e-61, No Iterations 62
DILUPBiCGStab:  Solving for ILambda_46_0, Initial residual = 1, Final residual = 3.73872483829e-61, No Iterations 54
DILUPBiCGStab:  Solving for ILambda_47_0, Initial residual = 1, Final residual = 1.40988668501e-61, No Iterations 38
DILUPBiCGStab:  Solving for ILambda_48_0, Initial residual = 1, Final residual = 3.33369733474e-61, No Iterations 33
DILUPBiCGStab:  Solving for ILambda_49_0, Initial residual = 1, Final residual = 8.3567822173e-62, No Iterations 34
DILUPBiCGStab:  Solving for ILambda_50_0, Initial residual = 1, Final residual = 4.05099789501e-61, No Iterations 29
DILUPBiCGStab:  Solving for ILambda_51_0, Initial residual = 1, Final residual = 2.48318673975e-62, No Iterations 33
DILUPBiCGStab:  Solving for ILambda_52_0, Initial residual = 1, Final residual = 8.15941200867e-61, No Iterations 32
DILUPBiCGStab:  Solving for ILambda_53_0, Initial residual = 1, Final residual = 9.14005133544e-63, No Iterations 31
DILUPBiCGStab:  Solving for ILambda_54_0, Initial residual = 1, Final residual = 3.44249516225e-62, No Iterations 27
DILUPBiCGStab:  Solving for ILambda_55_0, Initial residual = 1, Final residual = 8.73909722508e-61, No Iterations 30
DILUPBiCGStab:  Solving for ILambda_56_0, Initial residual = 1, Final residual = 9.93138693308e-61, No Iterations 37
DILUPBiCGStab:  Solving for ILambda_57_0, Initial residual = 1, Final residual = 6.47008138086e-61, No Iterations 54
DILUPBiCGStab:  Solving for ILambda_58_0, Initial residual = 1, Final residual = 1.71221509135e-61, No Iterations 61
DILUPBiCGStab:  Solving for ILambda_59_0, Initial residual = 1, Final residual = 9.66285403133e-61, No Iterations 66
DILUPBiCGStab:  Solving for ILambda_60_0, Initial residual = 1, Final residual = 8.52938955751e-61, No Iterations 65
DILUPBiCGStab:  Solving for ILambda_61_0, Initial residual = 1, Final residual = 1.60056676224e-61, No Iterations 64
DILUPBiCGStab:  Solving for ILambda_62_0, Initial residual = 1, Final residual = 3.85977722753e-61, No Iterations 54
DILUPBiCGStab:  Solving for ILambda_63_0, Initial residual = 1, Final residual = 3.5993502893e-61, No Iterations 39
DILUPBiCGStab:  Solving for ILambda_64_0, Initial residual = 1, Final residual = 7.131849998e-62, No Iterations 27
DILUPBiCGStab:  Solving for ILambda_65_0, Initial residual = 1, Final residual = 6.63915113005e-62, No Iterations 31
DILUPBiCGStab:  Solving for ILambda_66_0, Initial residual = 1, Final residual = 2.88749401966e-61, No Iterations 30
DILUPBiCGStab:  Solving for ILambda_67_0, Initial residual = 1, Final residual = 3.82153769903e-61, No Iterations 29
DILUPBiCGStab:  Solving for ILambda_68_0, Initial residual = 1, Final residual = 2.33159830815e-62, No Iterations 31
DILUPBiCGStab:  Solving for ILambda_69_0, Initial residual = 1, Final residual = 2.59099902164e-61, No Iterations 31
DILUPBiCGStab:  Solving for ILambda_70_0, Initial residual = 1, Final residual = 6.45803911353e-61, No Iterations 32
DILUPBiCGStab:  Solving for ILambda_71_0, Initial residual = 1, Final residual = 1.18995951661e-61, No Iterations 35
DILUPBiCGStab:  Solving for ILambda_72_0, Initial residual = 1, Final residual = 1.50302052639e-61, No Iterations 38
DILUPBiCGStab:  Solving for ILambda_73_0, Initial residual = 1, Final residual = 8.28787237972e-61, No Iterations 53
DILUPBiCGStab:  Solving for ILambda_74_0, Initial residual = 1, Final residual = 3.94569230103e-61, No Iterations 63
DILUPBiCGStab:  Solving for ILambda_75_0, Initial residual = 1, Final residual = 6.29219920096e-62, No Iterations 65
DILUPBiCGStab:  Solving for ILambda_76_0, Initial residual = 1, Final residual = 3.59096292896e-61, No Iterations 67
DILUPBiCGStab:  Solving for ILambda_77_0, Initial residual = 1, Final residual = 1.65236329279e-61, No Iterations 65
DILUPBiCGStab:  Solving for ILambda_78_0, Initial residual = 1, Final residual = 4.72624471741e-61, No Iterations 56
DILUPBiCGStab:  Solving for ILambda_79_0, Initial residual = 1, Final residual = 2.75508429835e-61, No Iterations 40
DILUPBiCGStab:  Solving for ILambda_80_0, Initial residual = 1, Final residual = 1.72435432819e-72, No Iterations 3
DILUPBiCGStab:  Solving for ILambda_81_0, Initial residual = 1, Final residual = 2.35181167287e-73, No Iterations 3
DILUPBiCGStab:  Solving for ILambda_82_0, Initial residual = 1, Final residual = 1.19614847168e-70, No Iterations 3
DILUPBiCGStab:  Solving for ILambda_83_0, Initial residual = 1, Final residual = 6.5179978716e-73, No Iterations 3
DILUPBiCGStab:  Solving for ILambda_84_0, Initial residual = 1, Final residual = 4.51864744441e-72, No Iterations 3
DILUPBiCGStab:  Solving for ILambda_85_0, Initial residual = 1, Final residual = 5.99094253254e-73, No Iterations 3
DILUPBiCGStab:  Solving for ILambda_86_0, Initial residual = 1, Final residual = 1.55680306685e-74, No Iterations 3
DILUPBiCGStab:  Solving for ILambda_87_0, Initial residual = 1, Final residual = 6.20593885262e-74, No Iterations 3
DILUPBiCGStab:  Solving for ILambda_88_0, Initial residual = 1, Final residual = 1.69649488334e-61, No Iterations 40
DILUPBiCGStab:  Solving for ILambda_89_0, Initial residual = 1, Final residual = 9.74412475186e-61, No Iterations 56
DILUPBiCGStab:  Solving for ILambda_90_0, Initial residual = 1, Final residual = 7.3560040291e-61, No Iterations 64
DILUPBiCGStab:  Solving for ILambda_91_0, Initial residual = 1, Final residual = 6.71125275497e-61, No Iterations 68
DILUPBiCGStab:  Solving for ILambda_92_0, Initial residual = 1, Final residual = 2.84863938167e-61, No Iterations 67
DILUPBiCGStab:  Solving for ILambda_93_0, Initial residual = 1, Final residual = 1.35366147724e-61, No Iterations 62
DILUPBiCGStab:  Solving for ILambda_94_0, Initial residual = 1, Final residual = 1.57552725519e-61, No Iterations 54
DILUPBiCGStab:  Solving for ILambda_95_0, Initial residual = 1, Final residual = 2.55465701908e-61, No Iterations 38
DILUPBiCGStab:  Solving for ILambda_96_0, Initial residual = 1, Final residual = 2.610861266e-61, No Iterations 25
DILUPBiCGStab:  Solving for ILambda_97_0, Initial residual = 1, Final residual = 7.96026082352e-61, No Iterations 28
DILUPBiCGStab:  Solving for ILambda_98_0, Initial residual = 1, Final residual = 2.36934881191e-61, No Iterations 30
DILUPBiCGStab:  Solving for ILambda_99_0, Initial residual = 1, Final residual = 3.78124955632e-61, No Iterations 32
DILUPBiCGStab:  Solving for ILambda_100_0, Initial residual = 1, Final residual = 5.20895762654e-62, No Iterations 32
DILUPBiCGStab:  Solving for ILambda_101_0, Initial residual = 1, Final residual = 4.1598666216e-62, No Iterations 30
DILUPBiCGStab:  Solving for ILambda_102_0, Initial residual = 1, Final residual = 5.10052495289e-61, No Iterations 28
DILUPBiCGStab:  Solving for ILambda_103_0, Initial residual = 1, Final residual = 1.29505367431e-62, No Iterations 26
DILUPBiCGStab:  Solving for ILambda_104_0, Initial residual = 1, Final residual = 2.77176371779e-61, No Iterations 38
DILUPBiCGStab:  Solving for ILambda_105_0, Initial residual = 1, Final residual = 8.62087660396e-61, No Iterations 54
DILUPBiCGStab:  Solving for ILambda_106_0, Initial residual = 1, Final residual = 2.82227158704e-61, No Iterations 61
DILUPBiCGStab:  Solving for ILambda_107_0, Initial residual = 1, Final residual = 1.03529662281e-61, No Iterations 63
DILUPBiCGStab:  Solving for ILambda_108_0, Initial residual = 1, Final residual = 3.34370911589e-61, No Iterations 63
DILUPBiCGStab:  Solving for ILambda_109_0, Initial residual = 1, Final residual = 6.09425130316e-62, No Iterations 63
DILUPBiCGStab:  Solving for ILambda_110_0, Initial residual = 1, Final residual = 7.89047506256e-62, No Iterations 56
DILUPBiCGStab:  Solving for ILambda_111_0, Initial residual = 1, Final residual = 3.37308311192e-61, No Iterations 38
DILUPBiCGStab:  Solving for ILambda_112_0, Initial residual = 1, Final residual = 3.11127274265e-75, No Iterations 3
DILUPBiCGStab:  Solving for ILambda_113_0, Initial residual = 1, Final residual = 1.38360880322e-74, No Iterations 3
DILUPBiCGStab:  Solving for ILambda_114_0, Initial residual = 1, Final residual = 1.93988393292e-74, No Iterations 3
DILUPBiCGStab:  Solving for ILambda_115_0, Initial residual = 1, Final residual = 6.32136908382e-75, No Iterations 3
DILUPBiCGStab:  Solving for ILambda_116_0, Initial residual = 1, Final residual = 7.4638533377e-75, No Iterations 3
DILUPBiCGStab:  Solving for ILambda_117_0, Initial residual = 1, Final residual = 1.84436667042e-75, No Iterations 3
DILUPBiCGStab:  Solving for ILambda_118_0, Initial residual = 1, Final residual = 1.33059763131e-74, No Iterations 3
DILUPBiCGStab:  Solving for ILambda_119_0, Initial residual = 1, Final residual = 2.84877605481e-73, No Iterations 3
DILUPBiCGStab:  Solving for ILambda_120_0, Initial residual = 1, Final residual = 2.60489659755e-61, No Iterations 39
DILUPBiCGStab:  Solving for ILambda_121_0, Initial residual = 1, Final residual = 1.37061159017e-61, No Iterations 56
DILUPBiCGStab:  Solving for ILambda_122_0, Initial residual = 1, Final residual = 3.77787132725e-61, No Iterations 63
DILUPBiCGStab:  Solving for ILambda_123_0, Initial residual = 1, Final residual = 5.33147082465e-61, No Iterations 64
DILUPBiCGStab:  Solving for ILambda_124_0, Initial residual = 1, Final residual = 4.34741153078e-61, No Iterations 61
DILUPBiCGStab:  Solving for ILambda_125_0, Initial residual = 1, Final residual = 1.09856689868e-61, No Iterations 60
DILUPBiCGStab:  Solving for ILambda_126_0, Initial residual = 1, Final residual = 4.50548509422e-61, No Iterations 54
DILUPBiCGStab:  Solving for ILambda_127_0, Initial residual = 1, Final residual = 1.07782194781e-61, No Iterations 38
Radiation solver iter: 1
DILUPBiCGStab:  Solving for ILambda_0_0, Initial residual = 8.48809436868e-17, Final residual = 1.00045570027e-62, No Iterations 2
DILUPBiCGStab:  Solving for ILambda_1_0, Initial residual = 9.0226994581e-17, Final residual = 5.41723368871e-62, No Iterations 2
DILUPBiCGStab:  Solving for ILambda_2_0, Initial residual = 8.55903512987e-17, Final residual = 1.39326913342e-61, No Iterations 2
DILUPBiCGStab:  Solving for ILambda_3_0, Initial residual = 8.94871643619e-17, Final residual = 8.84453582842e-63, No Iterations 2
DILUPBiCGStab:  Solving for ILambda_4_0, Initial residual = 8.73188312731e-17, Final residual = 6.20082345738e-63, No Iterations 2
DILUPBiCGStab:  Solving for ILambda_5_0, Initial residual = 8.90039717791e-17, Final residual = 1.03197865255e-62, No Iterations 2
DILUPBiCGStab:  Solving for ILambda_6_0, Initial residual = 9.86972262904e-17, Final residual = 6.6689141172e-63, No Iterations 2
DILUPBiCGStab:  Solving for ILambda_7_0, Initial residual = 8.99411240484e-17, Final residual = 2.82872180481e-62, No Iterations 2
DILUPBiCGStab:  Solving for ILambda_8_0, Initial residual = 2.74056873392e-16, Final residual = 2.82940279448e-61, No Iterations 28
DILUPBiCGStab:  Solving for ILambda_9_0, Initial residual = 3.59748690035e-16, Final residual = 8.42964504484e-61, No Iterations 37
DILUPBiCGStab:  Solving for ILambda_10_0, Initial residual = 7.35539849703e-15, Final residual = 5.56291603586e-61, No Iterations 39
DILUPBiCGStab:  Solving for ILambda_11_0, Initial residual = 3.10037300045e-15, Final residual = 2.87357956079e-61, No Iterations 43
DILUPBiCGStab:  Solving for ILambda_12_0, Initial residual = 1.78953729729e-15, Final residual = 8.07404765773e-62, No Iterations 44
DILUPBiCGStab:  Solving for ILambda_13_0, Initial residual = 1.11941189969e-15, Final residual = 1.85373434937e-61, No Iterations 41
DILUPBiCGStab:  Solving for ILambda_14_0, Initial residual = 3.40510554957e-16, Final residual = 8.88540601306e-61, No Iterations 37
DILUPBiCGStab:  Solving for ILambda_15_0, Initial residual = 2.29765806249e-16, Final residual = 2.84732950113e-61, No Iterations 27
DILUPBiCGStab:  Solving for ILambda_16_0, Initial residual = 2.04803122253e-16, Final residual = 6.30940656683e-61, No Iterations 13
DILUPBiCGStab:  Solving for ILambda_17_0, Initial residual = 2.24024941295e-16, Final residual = 5.40387838944e-62, No Iterations 11
DILUPBiCGStab:  Solving for ILambda_18_0, Initial residual = 2.40094706296e-16, Final residual = 3.98067330557e-64, No Iterations 14
DILUPBiCGStab:  Solving for ILambda_19_0, Initial residual = 2.38373534546e-16, Final residual = 5.19469426243e-61, No Iterations 14
DILUPBiCGStab:  Solving for ILambda_20_0, Initial residual = 2.36141127028e-16, Final residual = 4.1778114545e-61, No Iterations 14
DILUPBiCGStab:  Solving for ILambda_21_0, Initial residual = 2.29987092476e-16, Final residual = 8.44082325993e-61, No Iterations 14
DILUPBiCGStab:  Solving for ILambda_22_0, Initial residual = 2.18271499398e-16, Final residual = 8.95881900448e-62, No Iterations 13
DILUPBiCGStab:  Solving for ILambda_23_0, Initial residual = 1.91924841712e-16, Final residual = 1.82092934499e-62, No Iterations 13
DILUPBiCGStab:  Solving for ILambda_24_0, Initial residual = 2.29502030347e-16, Final residual = 5.00132063585e-61, No Iterations 26
DILUPBiCGStab:  Solving for ILambda_25_0, Initial residual = 3.41033347916e-16, Final residual = 6.0228210096e-61, No Iterations 36
DILUPBiCGStab:  Solving for ILambda_26_0, Initial residual = 1.11061432753e-15, Final residual = 6.73212409534e-61, No Iterations 43
DILUPBiCGStab:  Solving for ILambda_27_0, Initial residual = 1.78952472035e-15, Final residual = 6.2943679201e-61, No Iterations 43
DILUPBiCGStab:  Solving for ILambda_28_0, Initial residual = 2.52835456258e-15, Final residual = 8.17907970565e-61, No Iterations 44
DILUPBiCGStab:  Solving for ILambda_29_0, Initial residual = 7.66585406543e-15, Final residual = 1.78563597987e-61, No Iterations 40
DILUPBiCGStab:  Solving for ILambda_30_0, Initial residual = 3.586109865e-16, Final residual = 3.61579703239e-61, No Iterations 37
DILUPBiCGStab:  Solving for ILambda_31_0, Initial residual = 2.80300136261e-16, Final residual = 4.39998702322e-61, No Iterations 27
DILUPBiCGStab:  Solving for ILambda_32_0, Initial residual = 4.30016244817e-16, Final residual = 3.55599400895e-61, No Iterations 2
DILUPBiCGStab:  Solving for ILambda_33_0, Initial residual = 3.71046014752e-16, Final residual = 7.83758780873e-62, No Iterations 2
DILUPBiCGStab:  Solving for ILambda_34_0, Initial residual = 3.73713346583e-16, Final residual = 1.91377086988e-61, No Iterations 2
DILUPBiCGStab:  Solving for ILambda_35_0, Initial residual = 3.7522054033e-16, Final residual = 2.07224417661e-61, No Iterations 2
DILUPBiCGStab:  Solving for ILambda_36_0, Initial residual = 3.5893373807e-16, Final residual = 1.18197789334e-61, No Iterations 2
DILUPBiCGStab:  Solving for ILambda_37_0, Initial residual = 3.82579412103e-16, Final residual = 1.01919538406e-61, No Iterations 2
DILUPBiCGStab:  Solving for ILambda_38_0, Initial residual = 3.88102050087e-16, Final residual = 1.48882862542e-61, No Iterations 2
DILUPBiCGStab:  Solving for ILambda_39_0, Initial residual = 4.3332364111e-16, Final residual = 9.8779269691e-76, No Iterations 2
DILUPBiCGStab:  Solving for ILambda_40_0, Initial residual = 1.07617984521e-15, Final residual = 3.84465667025e-61, No Iterations 29
DILUPBiCGStab:  Solving for ILambda_41_0, Initial residual = 5.71386599414e-15, Final residual = 4.83836907943e-61, No Iterations 39
DILUPBiCGStab:  Solving for ILambda_42_0, Initial residual = 3.30139267209e-15, Final residual = 7.67060199474e-61, No Iterations 44
DILUPBiCGStab:  Solving for ILambda_43_0, Initial residual = 2.36781975679e-13, Final residual = 2.19972683606e-61, No Iterations 45
DILUPBiCGStab:  Solving for ILambda_44_0, Initial residual = 2.10250920622e-14, Final residual = 8.81073898747e-61, No Iterations 46
DILUPBiCGStab:  Solving for ILambda_45_0, Initial residual = 5.22859753577e-15, Final residual = 2.88942939984e-61, No Iterations 44
DILUPBiCGStab:  Solving for ILambda_46_0, Initial residual = 4.0272556853e-15, Final residual = 5.99733517576e-61, No Iterations 36
DILUPBiCGStab:  Solving for ILambda_47_0, Initial residual = 1.02632416028e-15, Final residual = 6.82614947848e-61, No Iterations 28
DILUPBiCGStab:  Solving for ILambda_48_0, Initial residual = 1.43251933369e-15, Final residual = 5.56827670746e-63, No Iterations 15
DILUPBiCGStab:  Solving for ILambda_49_0, Initial residual = 1.82825728823e-15, Final residual = 1.37772007185e-61, No Iterations 18
DILUPBiCGStab:  Solving for ILambda_50_0, Initial residual = 2.43981015912e-15, Final residual = 3.19485711232e-62, No Iterations 15
DILUPBiCGStab:  Solving for ILambda_51_0, Initial residual = 2.78076328653e-15, Final residual = 1.99908717635e-61, No Iterations 17
DILUPBiCGStab:  Solving for ILambda_52_0, Initial residual = 2.68830099513e-15, Final residual = 2.27227000386e-61, No Iterations 18
DILUPBiCGStab:  Solving for ILambda_53_0, Initial residual = 2.32924726622e-15, Final residual = 5.62984054536e-61, No Iterations 16
DILUPBiCGStab:  Solving for ILambda_54_0, Initial residual = 1.74038422163e-15, Final residual = 2.10479403886e-61, No Iterations 17
DILUPBiCGStab:  Solving for ILambda_55_0, Initial residual = 1.36339101207e-15, Final residual = 2.54061077636e-61, No Iterations 18
DILUPBiCGStab:  Solving for ILambda_56_0, Initial residual = 1.00436617613e-15, Final residual = 7.73665666419e-62, No Iterations 27
DILUPBiCGStab:  Solving for ILambda_57_0, Initial residual = 4.12513456045e-15, Final residual = 2.0452576757e-61, No Iterations 38
DILUPBiCGStab:  Solving for ILambda_58_0, Initial residual = 5.0506929271e-15, Final residual = 5.76421914355e-61, No Iterations 41
DILUPBiCGStab:  Solving for ILambda_59_0, Initial residual = 2.02722603425e-14, Final residual = 3.14633904323e-61, No Iterations 46
DILUPBiCGStab:  Solving for ILambda_60_0, Initial residual = 2.3341974799e-13, Final residual = 3.94205858722e-61, No Iterations 43
DILUPBiCGStab:  Solving for ILambda_61_0, Initial residual = 3.08634426947e-15, Final residual = 2.17555360423e-61, No Iterations 43
DILUPBiCGStab:  Solving for ILambda_62_0, Initial residual = 5.6897277798e-15, Final residual = 9.51022851251e-61, No Iterations 38
DILUPBiCGStab:  Solving for ILambda_63_0, Initial residual = 1.07450405243e-15, Final residual = 3.73126145051e-61, No Iterations 28
DILUPBiCGStab:  Solving for ILambda_64_0, Initial residual = 1.40502052597e-14, Final residual = 8.68207229177e-61, No Iterations 17
DILUPBiCGStab:  Solving for ILambda_65_0, Initial residual = 1.74350976212e-15, Final residual = 5.31170909202e-61, No Iterations 18
DILUPBiCGStab:  Solving for ILambda_66_0, Initial residual = 1.75067895998e-15, Final residual = 2.69107892333e-62, No Iterations 14
DILUPBiCGStab:  Solving for ILambda_67_0, Initial residual = 1.74545442956e-15, Final residual = 2.03836757986e-62, No Iterations 15
DILUPBiCGStab:  Solving for ILambda_68_0, Initial residual = 1.77557179095e-15, Final residual = 4.39435377278e-62, No Iterations 17
DILUPBiCGStab:  Solving for ILambda_69_0, Initial residual = 1.77012427471e-15, Final residual = 4.13378888693e-61, No Iterations 14
DILUPBiCGStab:  Solving for ILambda_70_0, Initial residual = 1.82883582764e-15, Final residual = 1.42274641037e-61, No Iterations 16
DILUPBiCGStab:  Solving for ILambda_71_0, Initial residual = 1.43712837568e-14, Final residual = 2.17826194634e-61, No Iterations 17
DILUPBiCGStab:  Solving for ILambda_72_0, Initial residual = 1.25360381067e-15, Final residual = 5.51534885343e-61, No Iterations 28
DILUPBiCGStab:  Solving for ILambda_73_0, Initial residual = 3.83935444584e-15, Final residual = 8.2642236017e-61, No Iterations 38
DILUPBiCGStab:  Solving for ILambda_74_0, Initial residual = 2.62099633036e-15, Final residual = 3.51066110054e-61, No Iterations 44
DILUPBiCGStab:  Solving for ILambda_75_0, Initial residual = 2.48357420133e-13, Final residual = 2.54339104289e-61, No Iterations 43
DILUPBiCGStab:  Solving for ILambda_76_0, Initial residual = 4.27354484232e-14, Final residual = 3.40542165513e-61, No Iterations 45
DILUPBiCGStab:  Solving for ILambda_77_0, Initial residual = 2.08590345947e-15, Final residual = 4.37545827822e-61, No Iterations 43
DILUPBiCGStab:  Solving for ILambda_78_0, Initial residual = 1.51766762241e-15, Final residual = 6.2442709444e-61, No Iterations 39
DILUPBiCGStab:  Solving for ILambda_79_0, Initial residual = 9.63566910472e-16, Final residual = 1.03741703419e-61, No Iterations 30
DILUPBiCGStab:  Solving for ILambda_80_0, Initial residual = 4.70498027627e-16, Final residual = 3.75287486686e-61, No Iterations 2
DILUPBiCGStab:  Solving for ILambda_81_0, Initial residual = 4.22897694645e-16, Final residual = 1.15227820473e-61, No Iterations 2
DILUPBiCGStab:  Solving for ILambda_82_0, Initial residual = 4.08421292452e-16, Final residual = 1.26293388552e-61, No Iterations 2
DILUPBiCGStab:  Solving for ILambda_83_0, Initial residual = 3.96487132488e-16, Final residual = 9.57524906908e-62, No Iterations 2
DILUPBiCGStab:  Solving for ILambda_84_0, Initial residual = 4.0362777729e-16, Final residual = 1.56773747498e-61, No Iterations 2
DILUPBiCGStab:  Solving for ILambda_85_0, Initial residual = 3.52625550978e-16, Final residual = 4.03606159396e-61, No Iterations 2
DILUPBiCGStab:  Solving for ILambda_86_0, Initial residual = 3.75041743779e-16, Final residual = 2.67302643918e-62, No Iterations 2
DILUPBiCGStab:  Solving for ILambda_87_0, Initial residual = 4.23713156485e-16, Final residual = 8.23576804195e-62, No Iterations 2
DILUPBiCGStab:  Solving for ILambda_88_0, Initial residual = 9.53246338401e-16, Final residual = 5.27116023183e-61, No Iterations 29
DILUPBiCGStab:  Solving for ILambda_89_0, Initial residual = 1.50528205214e-15, Final residual = 2.15805343979e-61, No Iterations 40
DILUPBiCGStab:  Solving for ILambda_90_0, Initial residual = 2.09976019224e-15, Final residual = 2.10775078312e-61, No Iterations 46
DILUPBiCGStab:  Solving for ILambda_91_0, Initial residual = 5.05522681336e-14, Final residual = 6.0771960576e-61, No Iterations 45
DILUPBiCGStab:  Solving for ILambda_92_0, Initial residual = 2.37749251089e-13, Final residual = 6.49384207783e-61, No Iterations 42
DILUPBiCGStab:  Solving for ILambda_93_0, Initial residual = 2.67183641607e-15, Final residual = 5.01317197879e-61, No Iterations 44
DILUPBiCGStab:  Solving for ILambda_94_0, Initial residual = 3.75701693409e-15, Final residual = 7.05746503561e-61, No Iterations 39
DILUPBiCGStab:  Solving for ILambda_95_0, Initial residual = 1.28286627981e-15, Final residual = 2.50630271962e-61, No Iterations 29
DILUPBiCGStab:  Solving for ILambda_96_0, Initial residual = 1.32964588223e-15, Final residual = 4.52449920442e-61, No Iterations 13
DILUPBiCGStab:  Solving for ILambda_97_0, Initial residual = 3.7890609473e-16, Final residual = 3.91173954082e-63, No Iterations 12
DILUPBiCGStab:  Solving for ILambda_98_0, Initial residual = 3.63047758352e-16, Final residual = 1.6167672917e-62, No Iterations 12
DILUPBiCGStab:  Solving for ILambda_99_0, Initial residual = 3.71751343355e-16, Final residual = 1.72472554142e-61, No Iterations 16
DILUPBiCGStab:  Solving for ILambda_100_0, Initial residual = 3.69227286708e-16, Final residual = 5.00062668124e-61, No Iterations 14
DILUPBiCGStab:  Solving for ILambda_101_0, Initial residual = 3.79500270344e-16, Final residual = 1.46876175083e-61, No Iterations 14
DILUPBiCGStab:  Solving for ILambda_102_0, Initial residual = 3.9761854755e-16, Final residual = 3.86392000447e-61, No Iterations 13
DILUPBiCGStab:  Solving for ILambda_103_0, Initial residual = 1.41205137746e-15, Final residual = 4.81876806964e-61, No Iterations 14
DILUPBiCGStab:  Solving for ILambda_104_0, Initial residual = 2.29218539236e-16, Final residual = 7.53556156958e-61, No Iterations 27
DILUPBiCGStab:  Solving for ILambda_105_0, Initial residual = 9.38495792826e-16, Final residual = 7.22199878637e-62, No Iterations 38
DILUPBiCGStab:  Solving for ILambda_106_0, Initial residual = 1.13856488546e-15, Final residual = 2.84150850644e-61, No Iterations 41
DILUPBiCGStab:  Solving for ILambda_107_0, Initial residual = 2.2199264315e-15, Final residual = 3.78095532138e-61, No Iterations 46
DILUPBiCGStab:  Solving for ILambda_108_0, Initial residual = 2.47939693942e-15, Final residual = 1.51970199274e-61, No Iterations 46
DILUPBiCGStab:  Solving for ILambda_109_0, Initial residual = 1.35844776329e-15, Final residual = 2.15112583599e-61, No Iterations 42
DILUPBiCGStab:  Solving for ILambda_110_0, Initial residual = 8.62891670844e-15, Final residual = 4.67286243932e-62, No Iterations 38
DILUPBiCGStab:  Solving for ILambda_111_0, Initial residual = 4.90422116017e-16, Final residual = 4.16401608092e-61, No Iterations 28
DILUPBiCGStab:  Solving for ILambda_112_0, Initial residual = 9.06190893009e-17, Final residual = 2.39686214863e-62, No Iterations 2
DILUPBiCGStab:  Solving for ILambda_113_0, Initial residual = 1.01115568626e-16, Final residual = 4.0332904552e-63, No Iterations 2
DILUPBiCGStab:  Solving for ILambda_114_0, Initial residual = 9.32767334857e-17, Final residual = 1.65517915454e-62, No Iterations 2
DILUPBiCGStab:  Solving for ILambda_115_0, Initial residual = 9.57283877267e-17, Final residual = 2.79570239255e-62, No Iterations 2
DILUPBiCGStab:  Solving for ILambda_116_0, Initial residual = 9.94554120491e-17, Final residual = 1.03442430133e-61, No Iterations 2
DILUPBiCGStab:  Solving for ILambda_117_0, Initial residual = 8.83069711523e-17, Final residual = 1.32967056996e-62, No Iterations 2
DILUPBiCGStab:  Solving for ILambda_118_0, Initial residual = 8.66163919679e-17, Final residual = 1.30738362447e-62, No Iterations 2
DILUPBiCGStab:  Solving for ILambda_119_0, Initial residual = 8.57405947891e-17, Final residual = 1.55935408514e-62, No Iterations 2
DILUPBiCGStab:  Solving for ILambda_120_0, Initial residual = 5.03801774721e-16, Final residual = 9.09563714943e-61, No Iterations 29
DILUPBiCGStab:  Solving for ILambda_121_0, Initial residual = 8.49065258702e-15, Final residual = 3.51865524012e-61, No Iterations 36
DILUPBiCGStab:  Solving for ILambda_122_0, Initial residual = 1.41070394489e-15, Final residual = 8.90106619303e-61, No Iterations 40
DILUPBiCGStab:  Solving for ILambda_123_0, Initial residual = 2.52602680823e-15, Final residual = 2.89851600537e-61, No Iterations 45
DILUPBiCGStab:  Solving for ILambda_124_0, Initial residual = 2.2906593332e-15, Final residual = 1.48540719802e-61, No Iterations 42
DILUPBiCGStab:  Solving for ILambda_125_0, Initial residual = 1.72900599657e-15, Final residual = 1.05488824908e-61, No Iterations 42
DILUPBiCGStab:  Solving for ILambda_126_0, Initial residual = 9.42151264535e-16, Final residual = 6.11407477461e-61, No Iterations 38
DILUPBiCGStab:  Solving for ILambda_127_0, Initial residual = 2.16040621508e-16, Final residual = 9.40339784926e-62, No Iterations 29
min/max(T) = 1000, 1000
PIMPLE: iteration 2
Radiation solver iter: 0
DILUPBiCGStab:  Solving for ILambda_0_0, Initial residual = 8.36426246019e-17, Final residual = 1.37779741613e-62, No Iterations 2
DILUPBiCGStab:  Solving for ILambda_1_0, Initial residual = 8.58937275774e-17, Final residual = 1.76710536392e-62, No Iterations 2
DILUPBiCGStab:  Solving for ILambda_2_0, Initial residual = 8.21432489545e-17, Final residual = 6.68736603286e-63, No Iterations 2
DILUPBiCGStab:  Solving for ILambda_3_0, Initial residual = 8.21425691197e-17, Final residual = 4.17950972969e-63, No Iterations 2
DILUPBiCGStab:  Solving for ILambda_4_0, Initial residual = 8.18711450765e-17, Final residual = 8.47894164471e-63, No Iterations 2
DILUPBiCGStab:  Solving for ILambda_5_0, Initial residual = 8.80722581882e-17, Final residual = 1.43163762573e-61, No Iterations 2
DILUPBiCGStab:  Solving for ILambda_6_0, Initial residual = 9.77539555079e-17, Final residual = 3.73736187182e-63, No Iterations 2
DILUPBiCGStab:  Solving for ILambda_7_0, Initial residual = 8.59353674588e-17, Final residual = 7.97284994199e-63, No Iterations 2
DILUPBiCGStab:  Solving for ILambda_8_0, Initial residual = 9.61430869536e-17, Final residual = 6.18102086542e-61, No Iterations 27
DILUPBiCGStab:  Solving for ILambda_9_0, Initial residual = 1.14861658287e-16, Final residual = 8.04745200291e-61, No Iterations 38
DILUPBiCGStab:  Solving for ILambda_10_0, Initial residual = 1.33651442315e-16, Final residual = 1.76142112345e-61, No Iterations 41
DILUPBiCGStab:  Solving for ILambda_11_0, Initial residual = 1.35696045471e-16, Final residual = 1.97803780071e-61, No Iterations 46
DILUPBiCGStab:  Solving for ILambda_12_0, Initial residual = 1.40063304215e-16, Final residual = 1.93326893651e-61, No Iterations 49
DILUPBiCGStab:  Solving for ILambda_13_0, Initial residual = 1.26733953285e-16, Final residual = 3.52573833862e-61, No Iterations 42
DILUPBiCGStab:  Solving for ILambda_14_0, Initial residual = 1.18968200385e-16, Final residual = 3.83340979509e-61, No Iterations 37
DILUPBiCGStab:  Solving for ILambda_15_0, Initial residual = 9.96447460404e-17, Final residual = 6.97388102741e-62, No Iterations 28
DILUPBiCGStab:  Solving for ILambda_16_0, Initial residual = 8.83973891804e-17, Final residual = 4.16929639799e-61, No Iterations 13
DILUPBiCGStab:  Solving for ILambda_17_0, Initial residual = 9.85067025882e-17, Final residual = 2.12422825107e-61, No Iterations 14
DILUPBiCGStab:  Solving for ILambda_18_0, Initial residual = 9.53721542924e-17, Final residual = 6.71620574045e-63, No Iterations 12
DILUPBiCGStab:  Solving for ILambda_19_0, Initial residual = 9.08079134161e-17, Final residual = 3.81632029912e-63, No Iterations 13
DILUPBiCGStab:  Solving for ILambda_20_0, Initial residual = 9.054209801e-17, Final residual = 5.07387816204e-62, No Iterations 13
DILUPBiCGStab:  Solving for ILambda_21_0, Initial residual = 8.9339470252e-17, Final residual = 1.5994156205e-61, No Iterations 12
DILUPBiCGStab:  Solving for ILambda_22_0, Initial residual = 9.0133687255e-17, Final residual = 2.32342067089e-63, No Iterations 14
DILUPBiCGStab:  Solving for ILambda_23_0, Initial residual = 8.62249770828e-17, Final residual = 3.22290850535e-62, No Iterations 12
DILUPBiCGStab:  Solving for ILambda_24_0, Initial residual = 9.8988195584e-17, Final residual = 3.85752895709e-62, No Iterations 28
DILUPBiCGStab:  Solving for ILambda_25_0, Initial residual = 1.24511233412e-16, Final residual = 6.98030396833e-61, No Iterations 36
DILUPBiCGStab:  Solving for ILambda_26_0, Initial residual = 1.29113714996e-16, Final residual = 8.43126249144e-61, No Iterations 43
DILUPBiCGStab:  Solving for ILambda_27_0, Initial residual = 1.43201931519e-16, Final residual = 6.59645819171e-62, No Iterations 45
DILUPBiCGStab:  Solving for ILambda_28_0, Initial residual = 1.41944747019e-16, Final residual = 2.37139901627e-61, No Iterations 47
DILUPBiCGStab:  Solving for ILambda_29_0, Initial residual = 1.37081038914e-16, Final residual = 2.5176587605e-61, No Iterations 41
DILUPBiCGStab:  Solving for ILambda_30_0, Initial residual = 1.18124865318e-16, Final residual = 1.62686839769e-61, No Iterations 38
DILUPBiCGStab:  Solving for ILambda_31_0, Initial residual = 1.07207228335e-16, Final residual = 6.31798854605e-61, No Iterations 27
DILUPBiCGStab:  Solving for ILambda_32_0, Initial residual = 4.13436433759e-16, Final residual = 4.24711792771e-61, No Iterations 2
DILUPBiCGStab:  Solving for ILambda_33_0, Initial residual = 3.64996164883e-16, Final residual = 5.47390510521e-62, No Iterations 2
DILUPBiCGStab:  Solving for ILambda_34_0, Initial residual = 3.64133794442e-16, Final residual = 3.42072784875e-61, No Iterations 2
DILUPBiCGStab:  Solving for ILambda_35_0, Initial residual = 3.5516201461e-16, Final residual = 5.15652006744e-61, No Iterations 2
DILUPBiCGStab:  Solving for ILambda_36_0, Initial residual = 3.79598676431e-16, Final residual = 2.04068423997e-61, No Iterations 2
DILUPBiCGStab:  Solving for ILambda_37_0, Initial residual = 3.71590562426e-16, Final residual = 4.36885779611e-62, No Iterations 2
DILUPBiCGStab:  Solving for ILambda_38_0, Initial residual = 3.92683116874e-16, Final residual = 4.86157970296e-62, No Iterations 2
DILUPBiCGStab:  Solving for ILambda_39_0, Initial residual = 4.25319266196e-16, Final residual = 3.08692570856e-61, No Iterations 2
DILUPBiCGStab:  Solving for ILambda_40_0, Initial residual = 4.82995090805e-16, Final residual = 5.95280534707e-63, No Iterations 29
DILUPBiCGStab:  Solving for ILambda_41_0, Initial residual = 5.26464407636e-16, Final residual = 1.62619294587e-61, No Iterations 40
DILUPBiCGStab:  Solving for ILambda_42_0, Initial residual = 6.21638220126e-16, Final residual = 2.82566131136e-61, No Iterations 45
DILUPBiCGStab:  Solving for ILambda_43_0, Initial residual = 6.31371075014e-16, Final residual = 6.28575488218e-61, No Iterations 48
DILUPBiCGStab:  Solving for ILambda_44_0, Initial residual = 6.06381707503e-16, Final residual = 1.27411056835e-61, No Iterations 45
DILUPBiCGStab:  Solving for ILambda_45_0, Initial residual = 6.29640555536e-16, Final residual = 3.90756824866e-61, No Iterations 42
DILUPBiCGStab:  Solving for ILambda_46_0, Initial residual = 5.4581148624e-16, Final residual = 3.22371557722e-61, No Iterations 36
DILUPBiCGStab:  Solving for ILambda_47_0, Initial residual = 4.68835491628e-16, Final residual = 3.67028213919e-61, No Iterations 27
DILUPBiCGStab:  Solving for ILambda_48_0, Initial residual = 4.4565312501e-16, Final residual = 2.06723484926e-61, No Iterations 15
DILUPBiCGStab:  Solving for ILambda_49_0, Initial residual = 4.00449889526e-16, Final residual = 9.55818915794e-61, No Iterations 14
DILUPBiCGStab:  Solving for ILambda_50_0, Initial residual = 4.0237450184e-16, Final residual = 8.05320343775e-61, No Iterations 16
DILUPBiCGStab:  Solving for ILambda_51_0, Initial residual = 3.79267596884e-16, Final residual = 9.45586566584e-61, No Iterations 16
DILUPBiCGStab:  Solving for ILambda_52_0, Initial residual = 3.78057151026e-16, Final residual = 1.18666272167e-61, No Iterations 16
DILUPBiCGStab:  Solving for ILambda_53_0, Initial residual = 3.86140046859e-16, Final residual = 8.5792763616e-62, No Iterations 15
DILUPBiCGStab:  Solving for ILambda_54_0, Initial residual = 3.79460669967e-16, Final residual = 7.49982061222e-62, No Iterations 16
DILUPBiCGStab:  Solving for ILambda_55_0, Initial residual = 4.21542783892e-16, Final residual = 7.27805743598e-62, No Iterations 15
DILUPBiCGStab:  Solving for ILambda_56_0, Initial residual = 4.66593056546e-16, Final residual = 4.09884017012e-61, No Iterations 28
DILUPBiCGStab:  Solving for ILambda_57_0, Initial residual = 5.27766291275e-16, Final residual = 1.59386742084e-61, No Iterations 39
DILUPBiCGStab:  Solving for ILambda_58_0, Initial residual = 6.03204839491e-16, Final residual = 5.32993082659e-61, No Iterations 43
DILUPBiCGStab:  Solving for ILambda_59_0, Initial residual = 6.36458618727e-16, Final residual = 4.92612581336e-61, No Iterations 45
DILUPBiCGStab:  Solving for ILambda_60_0, Initial residual = 6.18504521624e-16, Final residual = 4.84049199634e-61, No Iterations 47
DILUPBiCGStab:  Solving for ILambda_61_0, Initial residual = 6.2058957495e-16, Final residual = 4.12473670957e-61, No Iterations 44
DILUPBiCGStab:  Solving for ILambda_62_0, Initial residual = 5.51252883965e-16, Final residual = 4.13707130031e-61, No Iterations 37
DILUPBiCGStab:  Solving for ILambda_63_0, Initial residual = 4.6242227006e-16, Final residual = 8.83719916802e-61, No Iterations 29
DILUPBiCGStab:  Solving for ILambda_64_0, Initial residual = 4.54994734972e-16, Final residual = 2.25115334458e-61, No Iterations 15
DILUPBiCGStab:  Solving for ILambda_65_0, Initial residual = 3.82282324297e-16, Final residual = 1.05376771739e-61, No Iterations 17
DILUPBiCGStab:  Solving for ILambda_66_0, Initial residual = 3.7924720184e-16, Final residual = 3.53147470949e-62, No Iterations 18
DILUPBiCGStab:  Solving for ILambda_67_0, Initial residual = 3.98772397162e-16, Final residual = 4.25700266562e-61, No Iterations 13
DILUPBiCGStab:  Solving for ILambda_68_0, Initial residual = 4.07285288505e-16, Final residual = 2.23040342502e-62, No Iterations 14
DILUPBiCGStab:  Solving for ILambda_69_0, Initial residual = 4.3504090381e-16, Final residual = 5.2130775712e-61, No Iterations 15
DILUPBiCGStab:  Solving for ILambda_70_0, Initial residual = 4.12087641519e-16, Final residual = 2.69745935098e-61, No Iterations 17
DILUPBiCGStab:  Solving for ILambda_71_0, Initial residual = 5.30565171139e-16, Final residual = 2.55640102217e-61, No Iterations 15
DILUPBiCGStab:  Solving for ILambda_72_0, Initial residual = 4.37808511274e-16, Final residual = 1.16467456004e-61, No Iterations 28
DILUPBiCGStab:  Solving for ILambda_73_0, Initial residual = 5.47760232689e-16, Final residual = 2.13528773785e-61, No Iterations 37
DILUPBiCGStab:  Solving for ILambda_74_0, Initial residual = 5.24189000567e-16, Final residual = 2.42028983117e-61, No Iterations 45
DILUPBiCGStab:  Solving for ILambda_75_0, Initial residual = 6.34724700074e-16, Final residual = 4.20716055798e-61, No Iterations 46
DILUPBiCGStab:  Solving for ILambda_76_0, Initial residual = 6.35029266064e-16, Final residual = 9.3911900695e-61, No Iterations 45
DILUPBiCGStab:  Solving for ILambda_77_0, Initial residual = 5.6602433446e-16, Final residual = 3.76363774107e-61, No Iterations 45
DILUPBiCGStab:  Solving for ILambda_78_0, Initial residual = 4.8019757061e-16, Final residual = 8.17818625051e-61, No Iterations 37
DILUPBiCGStab:  Solving for ILambda_79_0, Initial residual = 4.64246606741e-16, Final residual = 3.73444083589e-61, No Iterations 29
DILUPBiCGStab:  Solving for ILambda_80_0, Initial residual = 4.77213095846e-16, Final residual = 1.70857029791e-61, No Iterations 2
DILUPBiCGStab:  Solving for ILambda_81_0, Initial residual = 4.17358060792e-16, Final residual = 2.25650129181e-61, No Iterations 2
DILUPBiCGStab:  Solving for ILambda_82_0, Initial residual = 3.98423301993e-16, Final residual = 9.62372161875e-62, No Iterations 2
DILUPBiCGStab:  Solving for ILambda_83_0, Initial residual = 3.54855069199e-16, Final residual = 7.72027931098e-62, No Iterations 2
DILUPBiCGStab:  Solving for ILambda_84_0, Initial residual = 3.79555167004e-16, Final residual = 1.27663579425e-61, No Iterations 2
DILUPBiCGStab:  Solving for ILambda_85_0, Initial residual = 3.6491288512e-16, Final residual = 9.23880176447e-62, No Iterations 2
DILUPBiCGStab:  Solving for ILambda_86_0, Initial residual = 3.89724135915e-16, Final residual = 1.68765095659e-61, No Iterations 2
DILUPBiCGStab:  Solving for ILambda_87_0, Initial residual = 4.33284890527e-16, Final residual = 6.70101620245e-62, No Iterations 2
DILUPBiCGStab:  Solving for ILambda_88_0, Initial residual = 4.75805157979e-16, Final residual = 2.00805537199e-61, No Iterations 29
DILUPBiCGStab:  Solving for ILambda_89_0, Initial residual = 5.37531778233e-16, Final residual = 1.93562147312e-61, No Iterations 39
DILUPBiCGStab:  Solving for ILambda_90_0, Initial residual = 5.35393697793e-16, Final residual = 3.41058702856e-61, No Iterations 42
DILUPBiCGStab:  Solving for ILambda_91_0, Initial residual = 5.98529275666e-16, Final residual = 9.72422470646e-61, No Iterations 48
DILUPBiCGStab:  Solving for ILambda_92_0, Initial residual = 6.56700020008e-16, Final residual = 6.78407409453e-61, No Iterations 47
DILUPBiCGStab:  Solving for ILambda_93_0, Initial residual = 5.81643538949e-16, Final residual = 3.68350345044e-61, No Iterations 43
DILUPBiCGStab:  Solving for ILambda_94_0, Initial residual = 5.26261137032e-16, Final residual = 4.35627337174e-61, No Iterations 36
DILUPBiCGStab:  Solving for ILambda_95_0, Initial residual = 4.50106382856e-16, Final residual = 2.53769784062e-61, No Iterations 29
DILUPBiCGStab:  Solving for ILambda_96_0, Initial residual = 9.86441991762e-17, Final residual = 2.61821780133e-62, No Iterations 12
DILUPBiCGStab:  Solving for ILambda_97_0, Initial residual = 9.33343494849e-17, Final residual = 5.56573622556e-61, No Iterations 11
DILUPBiCGStab:  Solving for ILambda_98_0, Initial residual = 8.8357448886e-17, Final residual = 9.49323871509e-62, No Iterations 13
DILUPBiCGStab:  Solving for ILambda_99_0, Initial residual = 1.00084939072e-16, Final residual = 5.01834474635e-62, No Iterations 12
DILUPBiCGStab:  Solving for ILambda_100_0, Initial residual = 9.77624534429e-17, Final residual = 4.05700411547e-62, No Iterations 14
DILUPBiCGStab:  Solving for ILambda_101_0, Initial residual = 9.45991821269e-17, Final residual = 3.51913016172e-62, No Iterations 14
DILUPBiCGStab:  Solving for ILambda_102_0, Initial residual = 9.94712182082e-17, Final residual = 3.76004601166e-62, No Iterations 14
DILUPBiCGStab:  Solving for ILambda_103_0, Initial residual = 9.68268308019e-17, Final residual = 3.1583954523e-62, No Iterations 13
DILUPBiCGStab:  Solving for ILambda_104_0, Initial residual = 9.94037446044e-17, Final residual = 4.63673724796e-62, No Iterations 28
DILUPBiCGStab:  Solving for ILambda_105_0, Initial residual = 1.16390096872e-16, Final residual = 2.11190700814e-61, No Iterations 39
DILUPBiCGStab:  Solving for ILambda_106_0, Initial residual = 1.22662592638e-16, Final residual = 2.90044855109e-61, No Iterations 42
DILUPBiCGStab:  Solving for ILambda_107_0, Initial residual = 1.44115459529e-16, Final residual = 4.06937726236e-61, No Iterations 46
DILUPBiCGStab:  Solving for ILambda_108_0, Initial residual = 1.46810154711e-16, Final residual = 2.8255143019e-61, No Iterations 47
DILUPBiCGStab:  Solving for ILambda_109_0, Initial residual = 1.32902094409e-16, Final residual = 3.88079566899e-61, No Iterations 40
DILUPBiCGStab:  Solving for ILambda_110_0, Initial residual = 1.32315906854e-16, Final residual = 7.21200983369e-61, No Iterations 39
DILUPBiCGStab:  Solving for ILambda_111_0, Initial residual = 1.09013209477e-16, Final residual = 8.8055278264e-61, No Iterations 28
DILUPBiCGStab:  Solving for ILambda_112_0, Initial residual = 9.18079504042e-17, Final residual = 2.09049130371e-62, No Iterations 2
DILUPBiCGStab:  Solving for ILambda_113_0, Initial residual = 9.77094263286e-17, Final residual = 9.52243812684e-63, No Iterations 2
DILUPBiCGStab:  Solving for ILambda_114_0, Initial residual = 9.28567655392e-17, Final residual = 1.00352221159e-62, No Iterations 2
DILUPBiCGStab:  Solving for ILambda_115_0, Initial residual = 9.46544187043e-17, Final residual = 3.26012132274e-62, No Iterations 2
DILUPBiCGStab:  Solving for ILambda_116_0, Initial residual = 1.00128278541e-16, Final residual = 4.40989211944e-62, No Iterations 2
DILUPBiCGStab:  Solving for ILambda_117_0, Initial residual = 8.6205091915e-17, Final residual = 1.148737046e-62, No Iterations 2
DILUPBiCGStab:  Solving for ILambda_118_0, Initial residual = 8.70992446333e-17, Final residual = 2.80023639268e-62, No Iterations 2
DILUPBiCGStab:  Solving for ILambda_119_0, Initial residual = 8.47006175066e-17, Final residual = 9.74228897723e-63, No Iterations 2
DILUPBiCGStab:  Solving for ILambda_120_0, Initial residual = 1.04804182283e-16, Final residual = 3.88955585872e-61, No Iterations 27
DILUPBiCGStab:  Solving for ILambda_121_0, Initial residual = 1.31791414308e-16, Final residual = 2.43654761145e-61, No Iterations 37
DILUPBiCGStab:  Solving for ILambda_122_0, Initial residual = 1.38655706265e-16, Final residual = 3.54621829547e-61, No Iterations 44
DILUPBiCGStab:  Solving for ILambda_123_0, Initial residual = 1.44203668094e-16, Final residual = 9.89058194843e-61, No Iterations 43
DILUPBiCGStab:  Solving for ILambda_124_0, Initial residual = 1.38532996084e-16, Final residual = 8.42698664027e-61, No Iterations 42
DILUPBiCGStab:  Solving for ILambda_125_0, Initial residual = 1.25252933177e-16, Final residual = 2.28733146829e-61, No Iterations 42
DILUPBiCGStab:  Solving for ILambda_126_0, Initial residual = 1.23217847709e-16, Final residual = 5.14822237892e-61, No Iterations 39
DILUPBiCGStab:  Solving for ILambda_127_0, Initial residual = 8.98651525097e-17, Final residual = 1.18500896856e-61, No Iterations 28
min/max(T) = 1000, 1000
PIMPLE: iteration 3
Radiation solver iter: 0
DILUPBiCGStab:  Solving for ILambda_0_0, Initial residual = 8.03967533579e-17, Final residual = 4.7063777587e-62, No Iterations 2
DILUPBiCGStab:  Solving for ILambda_1_0, Initial residual = 8.38907643032e-17, Final residual = 1.21509452636e-61, No Iterations 2
DILUPBiCGStab:  Solving for ILambda_2_0, Initial residual = 8.08291282895e-17, Final residual = 1.25108991424e-62, No Iterations 2
DILUPBiCGStab:  Solving for ILambda_3_0, Initial residual = 7.80601611565e-17, Final residual = 4.54445211495e-63, No Iterations 2
DILUPBiCGStab:  Solving for ILambda_4_0, Initial residual = 7.60388423428e-17, Final residual = 3.39266423815e-63, No Iterations 2
DILUPBiCGStab:  Solving for ILambda_5_0, Initial residual = 9.05356395794e-17, Final residual = 7.63830049893e-63, No Iterations 2
DILUPBiCGStab:  Solving for ILambda_6_0, Initial residual = 9.04537194862e-17, Final residual = 8.81072803221e-63, No Iterations 2
DILUPBiCGStab:  Solving for ILambda_7_0, Initial residual = 7.88049201779e-17, Final residual = 3.54901568629e-63, No Iterations 2
DILUPBiCGStab:  Solving for ILambda_8_0, Initial residual = 8.28514668555e-17, Final residual = 5.34959951119e-61, No Iterations 28
DILUPBiCGStab:  Solving for ILambda_9_0, Initial residual = 1.06363043475e-16, Final residual = 2.93319902471e-61, No Iterations 36
DILUPBiCGStab:  Solving for ILambda_10_0, Initial residual = 1.1394643069e-16, Final residual = 3.77558361644e-62, No Iterations 44
DILUPBiCGStab:  Solving for ILambda_11_0, Initial residual = 1.16456210806e-16, Final residual = 1.44739448252e-61, No Iterations 45
DILUPBiCGStab:  Solving for ILambda_12_0, Initial residual = 9.96175526484e-17, Final residual = 2.9680124564e-61, No Iterations 43
DILUPBiCGStab:  Solving for ILambda_13_0, Initial residual = 1.27696769318e-16, Final residual = 8.24327075812e-61, No Iterations 42
DILUPBiCGStab:  Solving for ILambda_14_0, Initial residual = 1.16626679382e-16, Final residual = 8.12895052905e-62, No Iterations 38
DILUPBiCGStab:  Solving for ILambda_15_0, Initial residual = 8.55130200904e-17, Final residual = 1.23252452894e-61, No Iterations 27
DILUPBiCGStab:  Solving for ILambda_16_0, Initial residual = 8.33021973267e-17, Final residual = 2.90619566575e-61, No Iterations 13
DILUPBiCGStab:  Solving for ILambda_17_0, Initial residual = 9.62051218789e-17, Final residual = 2.75119559105e-61, No Iterations 14
DILUPBiCGStab:  Solving for ILambda_18_0, Initial residual = 8.92869530138e-17, Final residual = 4.28505657172e-61, No Iterations 13
DILUPBiCGStab:  Solving for ILambda_19_0, Initial residual = 8.40190831214e-17, Final residual = 5.27841852647e-61, No Iterations 12
DILUPBiCGStab:  Solving for ILambda_20_0, Initial residual = 8.98231727109e-17, Final residual = 1.21203206785e-61, No Iterations 12
DILUPBiCGStab:  Solving for ILambda_21_0, Initial residual = 8.11471210164e-17, Final residual = 2.33910048339e-61, No Iterations 13
DILUPBiCGStab:  Solving for ILambda_22_0, Initial residual = 8.69673566824e-17, Final residual = 7.72001642708e-62, No Iterations 13
DILUPBiCGStab:  Solving for ILambda_23_0, Initial residual = 8.32843516632e-17, Final residual = 2.60182528601e-61, No Iterations 13
DILUPBiCGStab:  Solving for ILambda_24_0, Initial residual = 9.36321171265e-17, Final residual = 7.49137261958e-62, No Iterations 28
DILUPBiCGStab:  Solving for ILambda_25_0, Initial residual = 1.09960389309e-16, Final residual = 6.12060943343e-61, No Iterations 39
DILUPBiCGStab:  Solving for ILambda_26_0, Initial residual = 9.29138716622e-17, Final residual = 5.83774355481e-61, No Iterations 43
DILUPBiCGStab:  Solving for ILambda_27_0, Initial residual = 1.19335141218e-16, Final residual = 2.11651482466e-61, No Iterations 44
DILUPBiCGStab:  Solving for ILambda_28_0, Initial residual = 1.20513124964e-16, Final residual = 1.99174811068e-61, No Iterations 48
DILUPBiCGStab:  Solving for ILambda_29_0, Initial residual = 1.10653820804e-16, Final residual = 5.00343750106e-61, No Iterations 44
DILUPBiCGStab:  Solving for ILambda_30_0, Initial residual = 9.65827701093e-17, Final residual = 7.87555893277e-61, No Iterations 39
DILUPBiCGStab:  Solving for ILambda_31_0, Initial residual = 8.40224822953e-17, Final residual = 1.3008887094e-61, No Iterations 26
DILUPBiCGStab:  Solving for ILambda_32_0, Initial residual = 4.02176329996e-16, Final residual = 2.66867451941e-61, No Iterations 2
DILUPBiCGStab:  Solving for ILambda_33_0, Initial residual = 3.66608393107e-16, Final residual = 5.80172216789e-62, No Iterations 2
DILUPBiCGStab:  Solving for ILambda_34_0, Initial residual = 3.28510790934e-16, Final residual = 1.83427981116e-61, No Iterations 2
DILUPBiCGStab:  Solving for ILambda_35_0, Initial residual = 3.28071957572e-16, Final residual = 7.56700021852e-62, No Iterations 2
DILUPBiCGStab:  Solving for ILambda_36_0, Initial residual = 3.40259355999e-16, Final residual = 1.83891183491e-61, No Iterations 2
DILUPBiCGStab:  Solving for ILambda_37_0, Initial residual = 3.58897026991e-16, Final residual = 4.52804913382e-62, No Iterations 2
DILUPBiCGStab:  Solving for ILambda_38_0, Initial residual = 3.86601994604e-16, Final residual = 4.27765643253e-62, No Iterations 2
DILUPBiCGStab:  Solving for ILambda_39_0, Initial residual = 4.15533384194e-16, Final residual = 1.28652710427e-61, No Iterations 2
DILUPBiCGStab:  Solving for ILambda_40_0, Initial residual = 4.34323678098e-16, Final residual = 3.80337986722e-61, No Iterations 29
DILUPBiCGStab:  Solving for ILambda_41_0, Initial residual = 4.52607495078e-16, Final residual = 5.36930955481e-61, No Iterations 38
DILUPBiCGStab:  Solving for ILambda_42_0, Initial residual = 4.58847698691e-16, Final residual = 2.42689959868e-61, No Iterations 45
DILUPBiCGStab:  Solving for ILambda_43_0, Initial residual = 5.12522355595e-16, Final residual = 3.98056026431e-61, No Iterations 44
DILUPBiCGStab:  Solving for ILambda_44_0, Initial residual = 5.25547990328e-16, Final residual = 9.74286682758e-61, No Iterations 44
DILUPBiCGStab:  Solving for ILambda_45_0, Initial residual = 4.88996332486e-16, Final residual = 3.19840697504e-61, No Iterations 42
DILUPBiCGStab:  Solving for ILambda_46_0, Initial residual = 5.14378984429e-16, Final residual = 6.48095170569e-61, No Iterations 37
DILUPBiCGStab:  Solving for ILambda_47_0, Initial residual = 4.28564797523e-16, Final residual = 2.0499197218e-61, No Iterations 27
DILUPBiCGStab:  Solving for ILambda_48_0, Initial residual = 4.19584859673e-16, Final residual = 9.97617569539e-61, No Iterations 13
DILUPBiCGStab:  Solving for ILambda_49_0, Initial residual = 3.83380597413e-16, Final residual = 8.70733070225e-62, No Iterations 16
DILUPBiCGStab:  Solving for ILambda_50_0, Initial residual = 3.72583121231e-16, Final residual = 4.2962128427e-61, No Iterations 14
DILUPBiCGStab:  Solving for ILambda_51_0, Initial residual = 3.14947066958e-16, Final residual = 4.92034578995e-61, No Iterations 15
DILUPBiCGStab:  Solving for ILambda_52_0, Initial residual = 3.63943780615e-16, Final residual = 2.39820972648e-61, No Iterations 16
DILUPBiCGStab:  Solving for ILambda_53_0, Initial residual = 3.70797535133e-16, Final residual = 9.54660245515e-61, No Iterations 14
DILUPBiCGStab:  Solving for ILambda_54_0, Initial residual = 3.78621413908e-16, Final residual = 8.09868610494e-61, No Iterations 15
DILUPBiCGStab:  Solving for ILambda_55_0, Initial residual = 4.2432806706e-16, Final residual = 3.9599047151e-63, No Iterations 14
DILUPBiCGStab:  Solving for ILambda_56_0, Initial residual = 3.98066728641e-16, Final residual = 2.37510125003e-63, No Iterations 29
DILUPBiCGStab:  Solving for ILambda_57_0, Initial residual = 4.88993613147e-16, Final residual = 4.56252196499e-61, No Iterations 38
DILUPBiCGStab:  Solving for ILambda_58_0, Initial residual = 5.91061290408e-16, Final residual = 1.99739600025e-61, No Iterations 44
DILUPBiCGStab:  Solving for ILambda_59_0, Initial residual = 5.67428193318e-16, Final residual = 5.52398518246e-62, No Iterations 48
DILUPBiCGStab:  Solving for ILambda_60_0, Initial residual = 5.69045860221e-16, Final residual = 3.58285721825e-61, No Iterations 47
DILUPBiCGStab:  Solving for ILambda_61_0, Initial residual = 4.16279502885e-16, Final residual = 3.5242956916e-61, No Iterations 43
DILUPBiCGStab:  Solving for ILambda_62_0, Initial residual = 4.3530230029e-16, Final residual = 9.60595510088e-61, No Iterations 39
DILUPBiCGStab:  Solving for ILambda_63_0, Initial residual = 4.30875556002e-16, Final residual = 3.00488311735e-61, No Iterations 30
DILUPBiCGStab:  Solving for ILambda_64_0, Initial residual = 4.21801461033e-16, Final residual = 1.44943496148e-61, No Iterations 15
DILUPBiCGStab:  Solving for ILambda_65_0, Initial residual = 3.88858026382e-16, Final residual = 1.79063257076e-62, No Iterations 14
[...]
DILUPBiCGStab:  Solving for ILambda_108_0, Initial residual = 1.31588143703e-16, Final residual = 9.68600403616e-61, No Iterations 43
DILUPBiCGStab:  Solving for ILambda_109_0, Initial residual = 1.33661809796e-16, Final residual = 1.55605079004e-61, No Iterations 42
DILUPBiCGStab:  Solving for ILambda_110_0, Initial residual = 1.08240237311e-16, Final residual = 6.18916058175e-61, No Iterations 37
DILUPBiCGStab:  Solving for ILambda_111_0, Initial residual = 9.39773032453e-17, Final residual = 4.13848447248e-61, No Iterations 27
DILUPBiCGStab:  Solving for ILambda_112_0, Initial residual = 9.07394200602e-17, Final residual = 2.96948587923e-62, No Iterations 2
DILUPBiCGStab:  Solving for ILambda_113_0, Initial residual = 9.50577306983e-17, Final residual = 6.90709336796e-62, No Iterations 2
DILUPBiCGStab:  Solving for ILambda_114_0, Initial residual = 9.07555661366e-17, Final residual = 1.92009087622e-62, No Iterations 2
DILUPBiCGStab:  Solving for ILambda_115_0, Initial residual = 9.50881533055e-17, Final residual = 2.92345961885e-62, No Iterations 2
DILUPBiCGStab:  Solving for ILambda_116_0, Initial residual = 9.87908735339e-17, Final residual = 1.22521630791e-62, No Iterations 2
DILUPBiCGStab:  Solving for ILambda_117_0, Initial residual = 8.76930803295e-17, Final residual = 2.00096694732e-62, No Iterations 2
DILUPBiCGStab:  Solving for ILambda_118_0, Initial residual = 8.88955381288e-17, Final residual = 1.15203754418e-62, No Iterations 2
DILUPBiCGStab:  Solving for ILambda_119_0, Initial residual = 8.17103641467e-17, Final residual = 9.06001866374e-62, No Iterations 2
DILUPBiCGStab:  Solving for ILambda_120_0, Initial residual = 9.27175693642e-17, Final residual = 2.94653326156e-61, No Iterations 28
DILUPBiCGStab:  Solving for ILambda_121_0, Initial residual = 1.11987486719e-16, Final residual = 9.8515752839e-61, No Iterations 37
DILUPBiCGStab:  Solving for ILambda_122_0, Initial residual = 1.02150277189e-16, Final residual = 1.41094061226e-61, No Iterations 43
DILUPBiCGStab:  Solving for ILambda_123_0, Initial residual = 1.39261099153e-16, Final residual = 3.33349819422e-61, No Iterations 44
DILUPBiCGStab:  Solving for ILambda_124_0, Initial residual = 1.39968977136e-16, Final residual = 7.73791960861e-61, No Iterations 44
DILUPBiCGStab:  Solving for ILambda_125_0, Initial residual = 1.0095172844e-16, Final residual = 1.97833600372e-61, No Iterations 44
DILUPBiCGStab:  Solving for ILambda_126_0, Initial residual = 1.14874745107e-16, Final residual = 2.86989618768e-61, No Iterations 37
DILUPBiCGStab:  Solving for ILambda_127_0, Initial residual = 8.34611087108e-17, Final residual = 1.8921004045e-61, No Iterations 27
min/max(T) = 1000, 1000
PIMPLE: iteration 10
Radiation solver iter: 0
DILUPBiCGStab:  Solving for ILambda_0_0, Initial residual = 8.23444800547e-17, Final residual = 1.12285341424e-62, No Iterations 2
DILUPBiCGStab:  Solving for ILambda_1_0, Initial residual = 8.61976137322e-17, Final residual = 7.35698738451e-63, No Iterations 2
DILUPBiCGStab:  Solving for ILambda_2_0, Initial residual = 8.26405481093e-17, Final residual = 1.96102446943e-62, No Iterations 2
DILUPBiCGStab:  Solving for ILambda_3_0, Initial residual = 8.7192721918e-17, Final residual = 8.53211449762e-63, No Iterations 2
DILUPBiCGStab:  Solving for ILambda_4_0, Initial residual = 8.62151194782e-17, Final residual = 3.50091716825e-62, No Iterations 2
DILUPBiCGStab:  Solving for ILambda_5_0, Initial residual = 8.56872277574e-17, Final residual = 6.65691686226e-62, No Iterations 2
DILUPBiCGStab:  Solving for ILambda_6_0, Initial residual = 9.06151802508e-17, Final residual = 3.68502326106e-63, No Iterations 2
DILUPBiCGStab:  Solving for ILambda_7_0, Initial residual = 7.97279658752e-17, Final residual = 1.14495240736e-62, No Iterations 2
DILUPBiCGStab:  Solving for ILambda_8_0, Initial residual = 8.49453580339e-17, Final residual = 1.1878451523e-61, No Iterations 28
DILUPBiCGStab:  Solving for ILambda_9_0, Initial residual = 9.29028243467e-17, Final residual = 2.17013995101e-61, No Iterations 37
DILUPBiCGStab:  Solving for ILambda_10_0, Initial residual = 1.07739029106e-16, Final residual = 3.48466734001e-61, No Iterations 42
DILUPBiCGStab:  Solving for ILambda_11_0, Initial residual = 1.00062674483e-16, Final residual = 6.11332473891e-61, No Iterations 43
DILUPBiCGStab:  Solving for ILambda_12_0, Initial residual = 9.23909087437e-17, Final residual = 1.70554385692e-61, No Iterations 43
DILUPBiCGStab:  Solving for ILambda_13_0, Initial residual = 1.05370484669e-16, Final residual = 9.21426557429e-61, No Iterations 44
DILUPBiCGStab:  Solving for ILambda_14_0, Initial residual = 1.05671481526e-16, Final residual = 3.13090661615e-61, No Iterations 37
DILUPBiCGStab:  Solving for ILambda_15_0, Initial residual = 8.94286985693e-17, Final residual = 9.05489877213e-61, No Iterations 27
DILUPBiCGStab:  Solving for ILambda_16_0, Initial residual = 8.4913065881e-17, Final residual = 6.39233657443e-61, No Iterations 12
DILUPBiCGStab:  Solving for ILambda_17_0, Initial residual = 9.28995951314e-17, Final residual = 8.87346619188e-62, No Iterations 12
DILUPBiCGStab:  Solving for ILambda_18_0, Initial residual = 8.98187537847e-17, Final residual = 1.50548762202e-64, No Iterations 13
DILUPBiCGStab:  Solving for ILambda_19_0, Initial residual = 9.08606006129e-17, Final residual = 2.58518925862e-61, No Iterations 13
DILUPBiCGStab:  Solving for ILambda_20_0, Initial residual = 8.3114223005e-17, Final residual = 8.50954628854e-61, No Iterations 11
DILUPBiCGStab:  Solving for ILambda_21_0, Initial residual = 8.2387309647e-17, Final residual = 2.54629772739e-61, No Iterations 14
DILUPBiCGStab:  Solving for ILambda_22_0, Initial residual = 8.47720001604e-17, Final residual = 1.99660577285e-62, No Iterations 11
DILUPBiCGStab:  Solving for ILambda_23_0, Initial residual = 8.14302722098e-17, Final residual = 4.2162572567e-61, No Iterations 13
DILUPBiCGStab:  Solving for ILambda_24_0, Initial residual = 9.0945410004e-17, Final residual = 1.59361740272e-62, No Iterations 27
DILUPBiCGStab:  Solving for ILambda_25_0, Initial residual = 9.81613465107e-17, Final residual = 2.64728384298e-61, No Iterations 36
DILUPBiCGStab:  Solving for ILambda_26_0, Initial residual = 1.2802325998e-16, Final residual = 7.14192485869e-61, No Iterations 43
DILUPBiCGStab:  Solving for ILambda_27_0, Initial residual = 1.18284286578e-16, Final residual = 5.98398807728e-61, No Iterations 42
DILUPBiCGStab:  Solving for ILambda_28_0, Initial residual = 1.11217743769e-16, Final residual = 9.66164777799e-61, No Iterations 46
DILUPBiCGStab:  Solving for ILambda_29_0, Initial residual = 1.31467642985e-16, Final residual = 2.11212589413e-61, No Iterations 42
DILUPBiCGStab:  Solving for ILambda_30_0, Initial residual = 1.03930424608e-16, Final residual = 2.51048566182e-61, No Iterations 38
DILUPBiCGStab:  Solving for ILambda_31_0, Initial residual = 8.59015456775e-17, Final residual = 6.99595302628e-62, No Iterations 28
DILUPBiCGStab:  Solving for ILambda_32_0, Initial residual = 4.05570745143e-16, Final residual = 1.5180172372e-61, No Iterations 2
DILUPBiCGStab:  Solving for ILambda_33_0, Initial residual = 3.67274631209e-16, Final residual = 6.99370671582e-62, No Iterations 2
DILUPBiCGStab:  Solving for ILambda_34_0, Initial residual = 3.52297870605e-16, Final residual = 1.4134816411e-61, No Iterations 2
DILUPBiCGStab:  Solving for ILambda_35_0, Initial residual = 3.25474988642e-16, Final residual = 9.88895743606e-62, No Iterations 2
DILUPBiCGStab:  Solving for ILambda_36_0, Initial residual = 3.28200446348e-16, Final residual = 1.79764178457e-61, No Iterations 2
DILUPBiCGStab:  Solving for ILambda_37_0, Initial residual = 3.7286423292e-16, Final residual = 1.20028221109e-61, No Iterations 2
DILUPBiCGStab:  Solving for ILambda_38_0, Initial residual = 3.93231063722e-16, Final residual = 3.06840647789e-62, No Iterations 2
DILUPBiCGStab:  Solving for ILambda_39_0, Initial residual = 3.89763566333e-16, Final residual = 4.63807799643e-61, No Iterations 2
DILUPBiCGStab:  Solving for ILambda_40_0, Initial residual = 4.27366928608e-16, Final residual = 3.36725099793e-61, No Iterations 28
DILUPBiCGStab:  Solving for ILambda_41_0, Initial residual = 4.66041710525e-16, Final residual = 7.87802573243e-61, No Iterations 38
DILUPBiCGStab:  Solving for ILambda_42_0, Initial residual = 5.51055391956e-16, Final residual = 7.98787215479e-61, No Iterations 40
DILUPBiCGStab:  Solving for ILambda_43_0, Initial residual = 4.46766014575e-16, Final residual = 3.10976785213e-61, No Iterations 46
DILUPBiCGStab:  Solving for ILambda_44_0, Initial residual = 5.24102661547e-16, Final residual = 9.65153763113e-61, No Iterations 46
DILUPBiCGStab:  Solving for ILambda_45_0, Initial residual = 4.32435776864e-16, Final residual = 5.46211517616e-61, No Iterations 40
DILUPBiCGStab:  Solving for ILambda_46_0, Initial residual = 5.10792515951e-16, Final residual = 5.95139722816e-61, No Iterations 38
DILUPBiCGStab:  Solving for ILambda_47_0, Initial residual = 4.2258599039e-16, Final residual = 3.82786433828e-63, No Iterations 29
DILUPBiCGStab:  Solving for ILambda_48_0, Initial residual = 3.92381610141e-16, Final residual = 7.62864258995e-61, No Iterations 16
DILUPBiCGStab:  Solving for ILambda_49_0, Initial residual = 3.91140911634e-16, Final residual = 2.62863908799e-61, No Iterations 12
DILUPBiCGStab:  Solving for ILambda_50_0, Initial residual = 3.78356618254e-16, Final residual = 4.60922330629e-62, No Iterations 15
DILUPBiCGStab:  Solving for ILambda_51_0, Initial residual = 3.40257316494e-16, Final residual = 4.8491687082e-62, No Iterations 15
DILUPBiCGStab:  Solving for ILambda_52_0, Initial residual = 3.82307478184e-16, Final residual = 1.3133587445e-61, No Iterations 14
DILUPBiCGStab:  Solving for ILambda_53_0, Initial residual = 3.58379332792e-16, Final residual = 6.41969568172e-62, No Iterations 18
DILUPBiCGStab:  Solving for ILambda_54_0, Initial residual = 3.54718762321e-16, Final residual = 4.20495758623e-61, No Iterations 15
DILUPBiCGStab:  Solving for ILambda_55_0, Initial residual = 4.13801844963e-16, Final residual = 4.93611177582e-61, No Iterations 14
DILUPBiCGStab:  Solving for ILambda_56_0, Initial residual = 4.1651268622e-16, Final residual = 9.18303962013e-61, No Iterations 27
DILUPBiCGStab:  Solving for ILambda_57_0, Initial residual = 4.70554453915e-16, Final residual = 6.03113999311e-61, No Iterations 39
DILUPBiCGStab:  Solving for ILambda_58_0, Initial residual = 4.57927202374e-16, Final residual = 8.75622086031e-61, No Iterations 41
DILUPBiCGStab:  Solving for ILambda_59_0, Initial residual = 4.0522097014e-16, Final residual = 3.07543769976e-61, No Iterations 47
DILUPBiCGStab:  Solving for ILambda_60_0, Initial residual = 4.5234065992e-16, Final residual = 4.66228622074e-61, No Iterations 45
DILUPBiCGStab:  Solving for ILambda_61_0, Initial residual = 4.88911353136e-16, Final residual = 7.50216024679e-61, No Iterations 45
DILUPBiCGStab:  Solving for ILambda_62_0, Initial residual = 3.71135073111e-16, Final residual = 2.9263503684e-61, No Iterations 37
DILUPBiCGStab:  Solving for ILambda_63_0, Initial residual = 4.26897162763e-16, Final residual = 1.21111694213e-61, No Iterations 30
DILUPBiCGStab:  Solving for ILambda_64_0, Initial residual = 4.16434165301e-16, Final residual = 1.67182845355e-62, No Iterations 13
DILUPBiCGStab:  Solving for ILambda_65_0, Initial residual = 3.65011461166e-16, Final residual = 5.39574138328e-61, No Iterations 14
DILUPBiCGStab:  Solving for ILambda_66_0, Initial residual = 3.68702624203e-16, Final residual = 5.04647902848e-62, No Iterations 15
DILUPBiCGStab:  Solving for ILambda_67_0, Initial residual = 3.5761111947e-16, Final residual = 4.70404590997e-61, No Iterations 15
DILUPBiCGStab:  Solving for ILambda_68_0, Initial residual = 4.00844193709e-16, Final residual = 2.61884363602e-61, No Iterations 14
DILUPBiCGStab:  Solving for ILambda_69_0, Initial residual = 3.91595721114e-16, Final residual = 1.31735096286e-61, No Iterations 15
DILUPBiCGStab:  Solving for ILambda_70_0, Initial residual = 4.24228471262e-16, Final residual = 7.09387415887e-62, No Iterations 15
DILUPBiCGStab:  Solving for ILambda_71_0, Initial residual = 4.36670807739e-16, Final residual = 3.35778692436e-61, No Iterations 14
DILUPBiCGStab:  Solving for ILambda_72_0, Initial residual = 4.8957215256e-16, Final residual = 7.10049681191e-61, No Iterations 29
DILUPBiCGStab:  Solving for ILambda_73_0, Initial residual = 4.99767635029e-16, Final residual = 3.11968473433e-61, No Iterations 38
DILUPBiCGStab:  Solving for ILambda_74_0, Initial residual = 5.65129671866e-16, Final residual = 6.42947211524e-61, No Iterations 41
DILUPBiCGStab:  Solving for ILambda_75_0, Initial residual = 4.79612572767e-16, Final residual = 6.30229457201e-61, No Iterations 45
DILUPBiCGStab:  Solving for ILambda_76_0, Initial residual = 3.98203715353e-16, Final residual = 8.35911646188e-61, No Iterations 44
DILUPBiCGStab:  Solving for ILambda_77_0, Initial residual = 5.51509861519e-16, Final residual = 4.7608974911e-61, No Iterations 42
DILUPBiCGStab:  Solving for ILambda_78_0, Initial residual = 5.57969991689e-16, Final residual = 6.56785236559e-61, No Iterations 36
DILUPBiCGStab:  Solving for ILambda_79_0, Initial residual = 4.58844299517e-16, Final residual = 1.71856131228e-61, No Iterations 29
DILUPBiCGStab:  Solving for ILambda_80_0, Initial residual = 4.59925916681e-16, Final residual = 2.27822641585e-61, No Iterations 2
DILUPBiCGStab:  Solving for ILambda_81_0, Initial residual = 3.95127462891e-16, Final residual = 3.91788171836e-62, No Iterations 2
DILUPBiCGStab:  Solving for ILambda_82_0, Initial residual = 4.33251238704e-16, Final residual = 2.74144412294e-61, No Iterations 2
DILUPBiCGStab:  Solving for ILambda_83_0, Initial residual = 3.55889777761e-16, Final residual = 1.22913740566e-61, No Iterations 2
DILUPBiCGStab:  Solving for ILambda_84_0, Initial residual = 3.33992638829e-16, Final residual = 6.44686709783e-62, No Iterations 2
DILUPBiCGStab:  Solving for ILambda_85_0, Initial residual = 3.79345777886e-16, Final residual = 8.97006499429e-62, No Iterations 2
DILUPBiCGStab:  Solving for ILambda_86_0, Initial residual = 3.65264359711e-16, Final residual = 5.01252809747e-62, No Iterations 2
DILUPBiCGStab:  Solving for ILambda_87_0, Initial residual = 4.11686878905e-16, Final residual = 7.47779252848e-76, No Iterations 2
DILUPBiCGStab:  Solving for ILambda_88_0, Initial residual = 4.92803067439e-16, Final residual = 1.30243508552e-61, No Iterations 29
DILUPBiCGStab:  Solving for ILambda_89_0, Initial residual = 5.41868444411e-16, Final residual = 3.63511517656e-61, No Iterations 38
DILUPBiCGStab:  Solving for ILambda_90_0, Initial residual = 5.78265099919e-16, Final residual = 5.38773040515e-61, No Iterations 43
DILUPBiCGStab:  Solving for ILambda_91_0, Initial residual = 4.23747488143e-16, Final residual = 7.95154243349e-61, No Iterations 45
DILUPBiCGStab:  Solving for ILambda_92_0, Initial residual = 4.45520217307e-16, Final residual = 8.8541715561e-61, No Iterations 49
DILUPBiCGStab:  Solving for ILambda_93_0, Initial residual = 4.72618092445e-16, Final residual = 9.27818970126e-61, No Iterations 44
DILUPBiCGStab:  Solving for ILambda_94_0, Initial residual = 3.98059590376e-16, Final residual = 5.07411015871e-62, No Iterations 40
DILUPBiCGStab:  Solving for ILambda_95_0, Initial residual = 4.39181437649e-16, Final residual = 4.61714071247e-61, No Iterations 30
DILUPBiCGStab:  Solving for ILambda_96_0, Initial residual = 8.71515919127e-17, Final residual = 6.45024373144e-63, No Iterations 12
DILUPBiCGStab:  Solving for ILambda_97_0, Initial residual = 8.64447336813e-17, Final residual = 1.64598407206e-61, No Iterations 13
DILUPBiCGStab:  Solving for ILambda_98_0, Initial residual = 8.26830377842e-17, Final residual = 7.76931311407e-62, No Iterations 12
DILUPBiCGStab:  Solving for ILambda_99_0, Initial residual = 9.63096464792e-17, Final residual = 6.51759589583e-62, No Iterations 14
DILUPBiCGStab:  Solving for ILambda_100_0, Initial residual = 8.95031404797e-17, Final residual = 1.33546360481e-61, No Iterations 13
DILUPBiCGStab:  Solving for ILambda_101_0, Initial residual = 8.94020150535e-17, Final residual = 5.18091948791e-62, No Iterations 13
DILUPBiCGStab:  Solving for ILambda_102_0, Initial residual = 9.6136628523e-17, Final residual = 1.22891954658e-61, No Iterations 13
DILUPBiCGStab:  Solving for ILambda_103_0, Initial residual = 9.41841429826e-17, Final residual = 7.80948521735e-62, No Iterations 11
DILUPBiCGStab:  Solving for ILambda_104_0, Initial residual = 8.83270262788e-17, Final residual = 4.58021000527e-64, No Iterations 29
DILUPBiCGStab:  Solving for ILambda_105_0, Initial residual = 1.07718124186e-16, Final residual = 7.72493676388e-61, No Iterations 37
DILUPBiCGStab:  Solving for ILambda_106_0, Initial residual = 1.05425041412e-16, Final residual = 4.90007737432e-61, No Iterations 43
DILUPBiCGStab:  Solving for ILambda_107_0, Initial residual = 1.28710912878e-16, Final residual = 8.50838918159e-61, No Iterations 42
DILUPBiCGStab:  Solving for ILambda_108_0, Initial residual = 1.21137893144e-16, Final residual = 1.0669856451e-61, No Iterations 46
DILUPBiCGStab:  Solving for ILambda_109_0, Initial residual = 1.19925237823e-16, Final residual = 4.11347504291e-61, No Iterations 40
DILUPBiCGStab:  Solving for ILambda_110_0, Initial residual = 1.22617043706e-16, Final residual = 2.08503755377e-61, No Iterations 38
DILUPBiCGStab:  Solving for ILambda_111_0, Initial residual = 9.2597748481e-17, Final residual = 1.01685890479e-61, No Iterations 28
DILUPBiCGStab:  Solving for ILambda_112_0, Initial residual = 8.96292498347e-17, Final residual = 2.53302830474e-62, No Iterations 2
DILUPBiCGStab:  Solving for ILambda_113_0, Initial residual = 9.65441894845e-17, Final residual = 1.2818011193e-62, No Iterations 2
DILUPBiCGStab:  Solving for ILambda_114_0, Initial residual = 9.11741744136e-17, Final residual = 1.7786838782e-74, No Iterations 2
DILUPBiCGStab:  Solving for ILambda_115_0, Initial residual = 9.26574039846e-17, Final residual = 6.75483905856e-62, No Iterations 2
DILUPBiCGStab:  Solving for ILambda_116_0, Initial residual = 9.40612628428e-17, Final residual = 1.97437505382e-62, No Iterations 2
DILUPBiCGStab:  Solving for ILambda_117_0, Initial residual = 8.45840258387e-17, Final residual = 3.09747829459e-62, No Iterations 2
DILUPBiCGStab:  Solving for ILambda_118_0, Initial residual = 8.56928363945e-17, Final residual = 5.05537208607e-62, No Iterations 2
DILUPBiCGStab:  Solving for ILambda_119_0, Initial residual = 8.34857527222e-17, Final residual = 9.32766577944e-63, No Iterations 2
DILUPBiCGStab:  Solving for ILambda_120_0, Initial residual = 8.97691258445e-17, Final residual = 3.44703717558e-61, No Iterations 27
DILUPBiCGStab:  Solving for ILambda_121_0, Initial residual = 1.10680164402e-16, Final residual = 5.64650977209e-61, No Iterations 37
DILUPBiCGStab:  Solving for ILambda_122_0, Initial residual = 1.03975803581e-16, Final residual = 2.84534177137e-61, No Iterations 43
DILUPBiCGStab:  Solving for ILambda_123_0, Initial residual = 1.40464916622e-16, Final residual = 1.10502762804e-61, No Iterations 44
DILUPBiCGStab:  Solving for ILambda_124_0, Initial residual = 1.3026195597e-16, Final residual = 3.42069854491e-61, No Iterations 44
DILUPBiCGStab:  Solving for ILambda_125_0, Initial residual = 1.07007696822e-16, Final residual = 8.926404901e-61, No Iterations 42
DILUPBiCGStab:  Solving for ILambda_126_0, Initial residual = 1.11291505844e-16, Final residual = 1.28471783482e-61, No Iterations 36
DILUPBiCGStab:  Solving for ILambda_127_0, Initial residual = 8.34033227529e-17, Final residual = 5.75006383112e-62, No Iterations 28
min/max(T) = 1000, 1000
ExecutionTime = 15.97 s  ClockTime = 16 s

writeObjects writeObjects1.writeObjects write:
    writing object a
    writing object qem
End

