/*---------------------------------------------------------------------------*\
| =========                 |                                                 |
| \\      /  F ield         | OpenFOAM: The Open Source CFD Toolbox           |
|  \\    /   O peration     | Version:  2306                                  |
|   \\  /    A nd           | Website:  www.openfoam.com                      |
|    \\/     M anipulation  |                                                 |
\*---------------------------------------------------------------------------*/
Build  : _fbf00d6b-20230626 OPENFOAM=2306 version=2306
Arch   : "LSB;label=32;scalar=64"
Exec   : fireRADFoam_MaCFP
Date   : Mar 12 2024
Time   : 23:17:53
Host   : pop-os
PID    : 198222
I/O    : uncollated
Case   : /home/rafay/Desktop/Study/Radiative_Heat_Transfer/Local_copy_RHT2324/01_Projects/02_Rafay/Case_1_q1D_SolidAngle/new_case3/th_4-ph_8/tau_0.0001/res_8
nProcs : 1
trapFpe: Floating point exception trapping enabled (FOAM_SIGFPE).
fileModificationChecking : Monitoring run-time modified files using timeStampMaster (fileModificationSkew 5, maxFileModificationPolls 20)
allowSystemOperations : Allowing user-supplied system call operations

// * * * * * * * * * * * * * * * * * * * * * * * * * * * * * * * * * * * * * //
Create time

Create mesh for time = 0


PIMPLE: no residual control data found. Calculations will employ 10 corrector loops

Reading thermophysical properties

Selecting thermodynamics package 
{
    type            hePsiThermo;
    mixture         singleStepReactingMixture;
    transport       sutherland;
    thermo          janaf;
    energy          sensibleEnthalpy;
    equationOfState perfectGas;
    specie          specie;
}

Selecting chemistryReader foamChemistryReader
    elements not defined in "/home/rafay/Desktop/Study/Radiative_Heat_Transfer/Local_copy_RHT2324/01_Projects/02_Rafay/Case_1_q1D_SolidAngle/new_case3/th_4-ph_8/tau_0.0001/res_8/constant/reactions"
Fuel heat of combustion :47168962.4726
stoichiometric air-fuel ratio :14.6914056505
stoichiometric oxygen-fuel ratio :3.42181919285
Maximum products mass concentrations:
    H2O: 0.0818486943001
    CO2: 0.199950099979
    N2: 0.718201205721
Creating component thermo properties:
    multi-component carrier - 6 species
    no liquid components
    no solid components
Creating field rho


Reading field U

Reading/calculating face flux field phi

Selecting radiationModel fvDOM
Selecting absorptionEmissionModel constantAbsorptionEmission
Selecting scatterModel none
Selecting sootModel none
fvDOM : Allocated 128 rays with average orientation:
	I0 : dAve : 	(0.00274192284156 0.0278392098 0.0490873852123) : omega : 	0.0575094490319 : d : 	(0.0375095356919 0.38084070704 0.923879532511)
	I1 : dAve : 	(0.00812039796756 0.0267693645798 0.0490873852123) : omega : 	0.0575094490319 : d : 	(0.111087136655 0.366205212247 0.923879532511)
	I2 : dAve : 	(0.0131868107536 0.0246707876912 0.0490873852123) : omega : 	0.0575094490319 : d : 	(0.180395721254 0.337496656517 0.923879532511)
	I3 : dAve : 	(0.0177464617977 0.0216241262672 0.0490873852123) : omega : 	0.0575094490319 : d : 	(0.242771799453 0.295818293547 0.923879532511)
	I4 : dAve : 	(0.0216241262672 0.0177464617977 0.0490873852123) : omega : 	0.0575094490319 : d : 	(0.295818293547 0.242771799453 0.923879532511)
	I5 : dAve : 	(0.0246707876912 0.0131868107536 0.0490873852123) : omega : 	0.0575094490319 : d : 	(0.337496656517 0.180395721254 0.923879532511)
	I6 : dAve : 	(0.0267693645798 0.00812039796756 0.0490873852123) : omega : 	0.0575094490319 : d : 	(0.366205212247 0.111087136655 0.923879532511)
	I7 : dAve : 	(0.0278392098 0.00274192284156 0.0490873852123) : omega : 	0.0575094490319 : d : 	(0.38084070704 0.0375095356919 0.923879532511)
	I8 : dAve : 	(0.0278392098 -0.00274192284156 0.0490873852123) : omega : 	0.0575094490319 : d : 	(0.38084070704 -0.0375095356919 0.923879532511)
	I9 : dAve : 	(0.0267693645798 -0.00812039796756 0.0490873852123) : omega : 	0.0575094490319 : d : 	(0.366205212247 -0.111087136655 0.923879532511)
	I10 : dAve : 	(0.0246707876912 -0.0131868107536 0.0490873852123) : omega : 	0.0575094490319 : d : 	(0.337496656517 -0.180395721254 0.923879532511)
	I11 : dAve : 	(0.0216241262672 -0.0177464617977 0.0490873852123) : omega : 	0.0575094490319 : d : 	(0.295818293547 -0.242771799453 0.923879532511)
	I12 : dAve : 	(0.0177464617977 -0.0216241262672 0.0490873852123) : omega : 	0.0575094490319 : d : 	(0.242771799453 -0.295818293547 0.923879532511)
	I13 : dAve : 	(0.0131868107536 -0.0246707876912 0.0490873852123) : omega : 	0.0575094490319 : d : 	(0.180395721254 -0.337496656517 0.923879532511)
	I14 : dAve : 	(0.00812039796756 -0.0267693645798 0.0490873852123) : omega : 	0.0575094490319 : d : 	(0.111087136655 -0.366205212247 0.923879532511)
	I15 : dAve : 	(0.00274192284156 -0.0278392098 0.0490873852123) : omega : 	0.0575094490319 : d : 	(0.0375095356919 -0.38084070704 0.923879532511)
	I16 : dAve : 	(-0.00274192284156 -0.0278392098 0.0490873852123) : omega : 	0.0575094490319 : d : 	(-0.0375095356919 -0.38084070704 0.923879532511)
	I17 : dAve : 	(-0.00812039796756 -0.0267693645798 0.0490873852123) : omega : 	0.0575094490319 : d : 	(-0.111087136655 -0.366205212247 0.923879532511)
	I18 : dAve : 	(-0.0131868107536 -0.0246707876912 0.0490873852123) : omega : 	0.0575094490319 : d : 	(-0.180395721254 -0.337496656517 0.923879532511)
	I19 : dAve : 	(-0.0177464617977 -0.0216241262672 0.0490873852123) : omega : 	0.0575094490319 : d : 	(-0.242771799453 -0.295818293547 0.923879532511)
	I20 : dAve : 	(-0.0216241262672 -0.0177464617977 0.0490873852123) : omega : 	0.0575094490319 : d : 	(-0.295818293547 -0.242771799453 0.923879532511)
	I21 : dAve : 	(-0.0246707876912 -0.0131868107536 0.0490873852123) : omega : 	0.0575094490319 : d : 	(-0.337496656517 -0.180395721254 0.923879532511)
	I22 : dAve : 	(-0.0267693645798 -0.00812039796756 0.0490873852123) : omega : 	0.0575094490319 : d : 	(-0.366205212247 -0.111087136655 0.923879532511)
	I23 : dAve : 	(-0.0278392098 -0.00274192284156 0.0490873852123) : omega : 	0.0575094490319 : d : 	(-0.38084070704 -0.0375095356919 0.923879532511)
	I24 : dAve : 	(-0.0278392098 0.00274192284156 0.0490873852123) : omega : 	0.0575094490319 : d : 	(-0.38084070704 0.0375095356919 0.923879532511)
	I25 : dAve : 	(-0.0267693645798 0.00812039796756 0.0490873852123) : omega : 	0.0575094490319 : d : 	(-0.366205212247 0.111087136655 0.923879532511)
	I26 : dAve : 	(-0.0246707876912 0.0131868107536 0.0490873852123) : omega : 	0.0575094490319 : d : 	(-0.337496656517 0.180395721254 0.923879532511)
	I27 : dAve : 	(-0.0216241262672 0.0177464617977 0.0490873852123) : omega : 	0.0575094490319 : d : 	(-0.295818293547 0.242771799453 0.923879532511)
	I28 : dAve : 	(-0.0177464617977 0.0216241262672 0.0490873852123) : omega : 	0.0575094490319 : d : 	(-0.242771799453 0.295818293547 0.923879532511)
	I29 : dAve : 	(-0.0131868107536 0.0246707876912 0.0490873852123) : omega : 	0.0575094490319 : d : 	(-0.180395721254 0.337496656517 0.923879532511)
	I30 : dAve : 	(-0.00812039796756 0.0267693645798 0.0490873852123) : omega : 	0.0575094490319 : d : 	(-0.111087136655 0.366205212247 0.923879532511)
	I31 : dAve : 	(-0.00274192284156 0.0278392098 0.0490873852123) : omega : 	0.0575094490319 : d : 	(-0.0375095356919 0.38084070704 0.923879532511)
	I32 : dAve : 	(0.0123492826399 0.125384370808 0.0490873852123) : omega : 	0.138840091817 : d : 	(0.0905560297858 0.91943080004 0.382683432365)
	I33 : dAve : 	(0.0365732719135 0.120565919754 0.0490873852123) : omega : 	0.138840091817 : d : 	(0.268188071917 0.884097590017 0.382683432365)
	I34 : dAve : 	(0.059391770858 0.111114188018 0.0490873852123) : omega : 	0.138840091817 : d : 	(0.435513796846 0.814789005418 0.382683432365)
	I35 : dAve : 	(0.0799278773557 0.0973924003507 0.0490873852123) : omega : 	0.138840091817 : d : 	(0.586102970801 0.714168536279 0.382683432365)
	I36 : dAve : 	(0.0973924003507 0.0799278773557 0.0490873852123) : omega : 	0.138840091817 : d : 	(0.714168536279 0.586102970801 0.382683432365)
	I37 : dAve : 	(0.111114188018 0.059391770858 0.0490873852123) : omega : 	0.138840091817 : d : 	(0.814789005418 0.435513796846 0.382683432365)
	I38 : dAve : 	(0.120565919754 0.0365732719135 0.0490873852123) : omega : 	0.138840091817 : d : 	(0.884097590017 0.268188071917 0.382683432365)
	I39 : dAve : 	(0.125384370808 0.0123492826399 0.0490873852123) : omega : 	0.138840091817 : d : 	(0.91943080004 0.0905560297858 0.382683432365)
	I40 : dAve : 	(0.125384370808 -0.0123492826399 0.0490873852123) : omega : 	0.138840091817 : d : 	(0.91943080004 -0.0905560297858 0.382683432365)
	I41 : dAve : 	(0.120565919754 -0.0365732719135 0.0490873852123) : omega : 	0.138840091817 : d : 	(0.884097590017 -0.268188071917 0.382683432365)
	I42 : dAve : 	(0.111114188018 -0.059391770858 0.0490873852123) : omega : 	0.138840091817 : d : 	(0.814789005418 -0.435513796846 0.382683432365)
	I43 : dAve : 	(0.0973924003507 -0.0799278773557 0.0490873852123) : omega : 	0.138840091817 : d : 	(0.714168536279 -0.586102970801 0.382683432365)
	I44 : dAve : 	(0.0799278773557 -0.0973924003507 0.0490873852123) : omega : 	0.138840091817 : d : 	(0.586102970801 -0.714168536279 0.382683432365)
	I45 : dAve : 	(0.059391770858 -0.111114188018 0.0490873852123) : omega : 	0.138840091817 : d : 	(0.435513796846 -0.814789005418 0.382683432365)
	I46 : dAve : 	(0.0365732719135 -0.120565919754 0.0490873852123) : omega : 	0.138840091817 : d : 	(0.268188071917 -0.884097590017 0.382683432365)
	I47 : dAve : 	(0.0123492826399 -0.125384370808 0.0490873852123) : omega : 	0.138840091817 : d : 	(0.0905560297858 -0.91943080004 0.382683432365)
	I48 : dAve : 	(-0.0123492826399 -0.125384370808 0.0490873852123) : omega : 	0.138840091817 : d : 	(-0.0905560297858 -0.91943080004 0.382683432365)
	I49 : dAve : 	(-0.0365732719135 -0.120565919754 0.0490873852123) : omega : 	0.138840091817 : d : 	(-0.268188071917 -0.884097590017 0.382683432365)
	I50 : dAve : 	(-0.059391770858 -0.111114188018 0.0490873852123) : omega : 	0.138840091817 : d : 	(-0.435513796846 -0.814789005418 0.382683432365)
	I51 : dAve : 	(-0.0799278773557 -0.0973924003507 0.0490873852123) : omega : 	0.138840091817 : d : 	(-0.586102970801 -0.714168536279 0.382683432365)
	I52 : dAve : 	(-0.0973924003507 -0.0799278773557 0.0490873852123) : omega : 	0.138840091817 : d : 	(-0.714168536279 -0.586102970801 0.382683432365)
	I53 : dAve : 	(-0.111114188018 -0.059391770858 0.0490873852123) : omega : 	0.138840091817 : d : 	(-0.814789005418 -0.435513796846 0.382683432365)
	I54 : dAve : 	(-0.120565919754 -0.0365732719135 0.0490873852123) : omega : 	0.138840091817 : d : 	(-0.884097590017 -0.268188071917 0.382683432365)
	I55 : dAve : 	(-0.125384370808 -0.0123492826399 0.0490873852123) : omega : 	0.138840091817 : d : 	(-0.91943080004 -0.0905560297858 0.382683432365)
	I56 : dAve : 	(-0.125384370808 0.0123492826399 0.0490873852123) : omega : 	0.138840091817 : d : 	(-0.91943080004 0.0905560297858 0.382683432365)
	I57 : dAve : 	(-0.120565919754 0.0365732719135 0.0490873852123) : omega : 	0.138840091817 : d : 	(-0.884097590017 0.268188071917 0.382683432365)
	I58 : dAve : 	(-0.111114188018 0.059391770858 0.0490873852123) : omega : 	0.138840091817 : d : 	(-0.814789005418 0.435513796846 0.382683432365)
	I59 : dAve : 	(-0.0973924003507 0.0799278773557 0.0490873852123) : omega : 	0.138840091817 : d : 	(-0.714168536279 0.586102970801 0.382683432365)
	I60 : dAve : 	(-0.0799278773557 0.0973924003507 0.0490873852123) : omega : 	0.138840091817 : d : 	(-0.586102970801 0.714168536279 0.382683432365)
	I61 : dAve : 	(-0.059391770858 0.111114188018 0.0490873852123) : omega : 	0.138840091817 : d : 	(-0.435513796846 0.814789005418 0.382683432365)
	I62 : dAve : 	(-0.0365732719135 0.120565919754 0.0490873852123) : omega : 	0.138840091817 : d : 	(-0.268188071917 0.884097590017 0.382683432365)
	I63 : dAve : 	(-0.0123492826399 0.125384370808 0.0490873852123) : omega : 	0.138840091817 : d : 	(-0.0905560297858 0.91943080004 0.382683432365)
	I64 : dAve : 	(0.0123492826399 0.125384370808 -0.0490873852123) : omega : 	0.138840091817 : d : 	(0.0905560297858 0.91943080004 -0.382683432365)
	I65 : dAve : 	(0.0365732719135 0.120565919754 -0.0490873852123) : omega : 	0.138840091817 : d : 	(0.268188071917 0.884097590017 -0.382683432365)
	I66 : dAve : 	(0.059391770858 0.111114188018 -0.0490873852123) : omega : 	0.138840091817 : d : 	(0.435513796846 0.814789005418 -0.382683432365)
	I67 : dAve : 	(0.0799278773557 0.0973924003507 -0.0490873852123) : omega : 	0.138840091817 : d : 	(0.586102970801 0.714168536279 -0.382683432365)
	I68 : dAve : 	(0.0973924003507 0.0799278773557 -0.0490873852123) : omega : 	0.138840091817 : d : 	(0.714168536279 0.586102970801 -0.382683432365)
	I69 : dAve : 	(0.111114188018 0.059391770858 -0.0490873852123) : omega : 	0.138840091817 : d : 	(0.814789005418 0.435513796846 -0.382683432365)
	I70 : dAve : 	(0.120565919754 0.0365732719135 -0.0490873852123) : omega : 	0.138840091817 : d : 	(0.884097590017 0.268188071917 -0.382683432365)
	I71 : dAve : 	(0.125384370808 0.0123492826399 -0.0490873852123) : omega : 	0.138840091817 : d : 	(0.91943080004 0.0905560297858 -0.382683432365)
	I72 : dAve : 	(0.125384370808 -0.0123492826399 -0.0490873852123) : omega : 	0.138840091817 : d : 	(0.91943080004 -0.0905560297858 -0.382683432365)
	I73 : dAve : 	(0.120565919754 -0.0365732719135 -0.0490873852123) : omega : 	0.138840091817 : d : 	(0.884097590017 -0.268188071917 -0.382683432365)
	I74 : dAve : 	(0.111114188018 -0.059391770858 -0.0490873852123) : omega : 	0.138840091817 : d : 	(0.814789005418 -0.435513796846 -0.382683432365)
	I75 : dAve : 	(0.0973924003507 -0.0799278773557 -0.0490873852123) : omega : 	0.138840091817 : d : 	(0.714168536279 -0.586102970801 -0.382683432365)
	I76 : dAve : 	(0.0799278773557 -0.0973924003507 -0.0490873852123) : omega : 	0.138840091817 : d : 	(0.586102970801 -0.714168536279 -0.382683432365)
	I77 : dAve : 	(0.059391770858 -0.111114188018 -0.0490873852123) : omega : 	0.138840091817 : d : 	(0.435513796846 -0.814789005418 -0.382683432365)
	I78 : dAve : 	(0.0365732719135 -0.120565919754 -0.0490873852123) : omega : 	0.138840091817 : d : 	(0.268188071917 -0.884097590017 -0.382683432365)
	I79 : dAve : 	(0.0123492826399 -0.125384370808 -0.0490873852123) : omega : 	0.138840091817 : d : 	(0.0905560297858 -0.91943080004 -0.382683432365)
	I80 : dAve : 	(-0.0123492826399 -0.125384370808 -0.0490873852123) : omega : 	0.138840091817 : d : 	(-0.0905560297858 -0.91943080004 -0.382683432365)
	I81 : dAve : 	(-0.0365732719135 -0.120565919754 -0.0490873852123) : omega : 	0.138840091817 : d : 	(-0.268188071917 -0.884097590017 -0.382683432365)
	I82 : dAve : 	(-0.059391770858 -0.111114188018 -0.0490873852123) : omega : 	0.138840091817 : d : 	(-0.435513796846 -0.814789005418 -0.382683432365)
	I83 : dAve : 	(-0.0799278773557 -0.0973924003507 -0.0490873852123) : omega : 	0.138840091817 : d : 	(-0.586102970801 -0.714168536279 -0.382683432365)
	I84 : dAve : 	(-0.0973924003507 -0.0799278773557 -0.0490873852123) : omega : 	0.138840091817 : d : 	(-0.714168536279 -0.586102970801 -0.382683432365)
	I85 : dAve : 	(-0.111114188018 -0.059391770858 -0.0490873852123) : omega : 	0.138840091817 : d : 	(-0.814789005418 -0.435513796846 -0.382683432365)
	I86 : dAve : 	(-0.120565919754 -0.0365732719135 -0.0490873852123) : omega : 	0.138840091817 : d : 	(-0.884097590017 -0.268188071917 -0.382683432365)
	I87 : dAve : 	(-0.125384370808 -0.0123492826399 -0.0490873852123) : omega : 	0.138840091817 : d : 	(-0.91943080004 -0.0905560297858 -0.382683432365)
	I88 : dAve : 	(-0.125384370808 0.0123492826399 -0.0490873852123) : omega : 	0.138840091817 : d : 	(-0.91943080004 0.0905560297858 -0.382683432365)
	I89 : dAve : 	(-0.120565919754 0.0365732719135 -0.0490873852123) : omega : 	0.138840091817 : d : 	(-0.884097590017 0.268188071917 -0.382683432365)
	I90 : dAve : 	(-0.111114188018 0.059391770858 -0.0490873852123) : omega : 	0.138840091817 : d : 	(-0.814789005418 0.435513796846 -0.382683432365)
	I91 : dAve : 	(-0.0973924003507 0.0799278773557 -0.0490873852123) : omega : 	0.138840091817 : d : 	(-0.714168536279 0.586102970801 -0.382683432365)
	I92 : dAve : 	(-0.0799278773557 0.0973924003507 -0.0490873852123) : omega : 	0.138840091817 : d : 	(-0.586102970801 0.714168536279 -0.382683432365)
	I93 : dAve : 	(-0.059391770858 0.111114188018 -0.0490873852123) : omega : 	0.138840091817 : d : 	(-0.435513796846 0.814789005418 -0.382683432365)
	I94 : dAve : 	(-0.0365732719135 0.120565919754 -0.0490873852123) : omega : 	0.138840091817 : d : 	(-0.268188071917 0.884097590017 -0.382683432365)
	I95 : dAve : 	(-0.0123492826399 0.125384370808 -0.0490873852123) : omega : 	0.138840091817 : d : 	(-0.0905560297858 0.91943080004 -0.382683432365)
	I96 : dAve : 	(0.00274192284156 0.0278392098 -0.0490873852123) : omega : 	0.0575094490319 : d : 	(0.0375095356919 0.38084070704 -0.923879532511)
	I97 : dAve : 	(0.00812039796756 0.0267693645798 -0.0490873852123) : omega : 	0.0575094490319 : d : 	(0.111087136655 0.366205212247 -0.923879532511)
	I98 : dAve : 	(0.0131868107536 0.0246707876912 -0.0490873852123) : omega : 	0.0575094490319 : d : 	(0.180395721254 0.337496656517 -0.923879532511)
	I99 : dAve : 	(0.0177464617977 0.0216241262672 -0.0490873852123) : omega : 	0.0575094490319 : d : 	(0.242771799453 0.295818293547 -0.923879532511)
	I100 : dAve : 	(0.0216241262672 0.0177464617977 -0.0490873852123) : omega : 	0.0575094490319 : d : 	(0.295818293547 0.242771799453 -0.923879532511)
	I101 : dAve : 	(0.0246707876912 0.0131868107536 -0.0490873852123) : omega : 	0.0575094490319 : d : 	(0.337496656517 0.180395721254 -0.923879532511)
	I102 : dAve : 	(0.0267693645798 0.00812039796756 -0.0490873852123) : omega : 	0.0575094490319 : d : 	(0.366205212247 0.111087136655 -0.923879532511)
	I103 : dAve : 	(0.0278392098 0.00274192284156 -0.0490873852123) : omega : 	0.0575094490319 : d : 	(0.38084070704 0.0375095356919 -0.923879532511)
	I104 : dAve : 	(0.0278392098 -0.00274192284156 -0.0490873852123) : omega : 	0.0575094490319 : d : 	(0.38084070704 -0.0375095356919 -0.923879532511)
	I105 : dAve : 	(0.0267693645798 -0.00812039796756 -0.0490873852123) : omega : 	0.0575094490319 : d : 	(0.366205212247 -0.111087136655 -0.923879532511)
	I106 : dAve : 	(0.0246707876912 -0.0131868107536 -0.0490873852123) : omega : 	0.0575094490319 : d : 	(0.337496656517 -0.180395721254 -0.923879532511)
	I107 : dAve : 	(0.0216241262672 -0.0177464617977 -0.0490873852123) : omega : 	0.0575094490319 : d : 	(0.295818293547 -0.242771799453 -0.923879532511)
	I108 : dAve : 	(0.0177464617977 -0.0216241262672 -0.0490873852123) : omega : 	0.0575094490319 : d : 	(0.242771799453 -0.295818293547 -0.923879532511)
	I109 : dAve : 	(0.0131868107536 -0.0246707876912 -0.0490873852123) : omega : 	0.0575094490319 : d : 	(0.180395721254 -0.337496656517 -0.923879532511)
	I110 : dAve : 	(0.00812039796756 -0.0267693645798 -0.0490873852123) : omega : 	0.0575094490319 : d : 	(0.111087136655 -0.366205212247 -0.923879532511)
	I111 : dAve : 	(0.00274192284156 -0.0278392098 -0.0490873852123) : omega : 	0.0575094490319 : d : 	(0.0375095356919 -0.38084070704 -0.923879532511)
	I112 : dAve : 	(-0.00274192284156 -0.0278392098 -0.0490873852123) : omega : 	0.0575094490319 : d : 	(-0.0375095356919 -0.38084070704 -0.923879532511)
	I113 : dAve : 	(-0.00812039796756 -0.0267693645798 -0.0490873852123) : omega : 	0.0575094490319 : d : 	(-0.111087136655 -0.366205212247 -0.923879532511)
	I114 : dAve : 	(-0.0131868107536 -0.0246707876912 -0.0490873852123) : omega : 	0.0575094490319 : d : 	(-0.180395721254 -0.337496656517 -0.923879532511)
	I115 : dAve : 	(-0.0177464617977 -0.0216241262672 -0.0490873852123) : omega : 	0.0575094490319 : d : 	(-0.242771799453 -0.295818293547 -0.923879532511)
	I116 : dAve : 	(-0.0216241262672 -0.0177464617977 -0.0490873852123) : omega : 	0.0575094490319 : d : 	(-0.295818293547 -0.242771799453 -0.923879532511)
	I117 : dAve : 	(-0.0246707876912 -0.0131868107536 -0.0490873852123) : omega : 	0.0575094490319 : d : 	(-0.337496656517 -0.180395721254 -0.923879532511)
	I118 : dAve : 	(-0.0267693645798 -0.00812039796756 -0.0490873852123) : omega : 	0.0575094490319 : d : 	(-0.366205212247 -0.111087136655 -0.923879532511)
	I119 : dAve : 	(-0.0278392098 -0.00274192284156 -0.0490873852123) : omega : 	0.0575094490319 : d : 	(-0.38084070704 -0.0375095356919 -0.923879532511)
	I120 : dAve : 	(-0.0278392098 0.00274192284156 -0.0490873852123) : omega : 	0.0575094490319 : d : 	(-0.38084070704 0.0375095356919 -0.923879532511)
	I121 : dAve : 	(-0.0267693645798 0.00812039796756 -0.0490873852123) : omega : 	0.0575094490319 : d : 	(-0.366205212247 0.111087136655 -0.923879532511)
	I122 : dAve : 	(-0.0246707876912 0.0131868107536 -0.0490873852123) : omega : 	0.0575094490319 : d : 	(-0.337496656517 0.180395721254 -0.923879532511)
	I123 : dAve : 	(-0.0216241262672 0.0177464617977 -0.0490873852123) : omega : 	0.0575094490319 : d : 	(-0.295818293547 0.242771799453 -0.923879532511)
	I124 : dAve : 	(-0.0177464617977 0.0216241262672 -0.0490873852123) : omega : 	0.0575094490319 : d : 	(-0.242771799453 0.295818293547 -0.923879532511)
	I125 : dAve : 	(-0.0131868107536 0.0246707876912 -0.0490873852123) : omega : 	0.0575094490319 : d : 	(-0.180395721254 0.337496656517 -0.923879532511)
	I126 : dAve : 	(-0.00812039796756 0.0267693645798 -0.0490873852123) : omega : 	0.0575094490319 : d : 	(-0.111087136655 0.366205212247 -0.923879532511)
	I127 : dAve : 	(-0.00274192284156 0.0278392098 -0.0490873852123) : omega : 	0.0575094490319 : d : 	(-0.0375095356919 0.38084070704 -0.923879532511)
Total omega : 12.5663706144

Courant Number mean: 0 max: 0

Starting time loop

Sampled set:
    data -> csv

Sampled set:
    data -> csv

Sampled surface:
    yNormal -> ensight
        sampledCuttingPlane: yNormal : plane:(0 1 0) (0 0 0) offsets:(0)

Sampled surface:
    zNormal -> ensight
        sampledCuttingPlane: zNormal : plane:(0 0 1) (0 0 0) offsets:(0)

Sampled surface:
    patchAll -> ensight
        sampledPatch: patchAll : patches:(".*WW.*")

deltaT = 1
Time = 1

PIMPLE: iteration 1
Radiation solver iter: 0
DILUPBiCGStab:  Solving for ILambda_0_0, Initial residual = 1, Final residual = 7.30265371253e-71, No Iterations 3
DILUPBiCGStab:  Solving for ILambda_1_0, Initial residual = 1, Final residual = 8.85498407001e-69, No Iterations 3
DILUPBiCGStab:  Solving for ILambda_2_0, Initial residual = 1, Final residual = 6.87788309099e-70, No Iterations 3
DILUPBiCGStab:  Solving for ILambda_3_0, Initial residual = 1, Final residual = 1.05056202057e-68, No Iterations 3
DILUPBiCGStab:  Solving for ILambda_4_0, Initial residual = 1, Final residual = 5.56407882236e-70, No Iterations 3
DILUPBiCGStab:  Solving for ILambda_5_0, Initial residual = 1, Final residual = 1.51982998397e-70, No Iterations 3
DILUPBiCGStab:  Solving for ILambda_6_0, Initial residual = 1, Final residual = 8.05003650232e-70, No Iterations 3
DILUPBiCGStab:  Solving for ILambda_7_0, Initial residual = 1, Final residual = 3.95778115549e-71, No Iterations 3
DILUPBiCGStab:  Solving for ILambda_8_0, Initial residual = 1, Final residual = 4.85367062191e-61, No Iterations 84
DILUPBiCGStab:  Solving for ILambda_9_0, Initial residual = 1, Final residual = 4.46945061424e-61, No Iterations 136
DILUPBiCGStab:  Solving for ILambda_10_0, Initial residual = 1, Final residual = 6.85664730091e-61, No Iterations 162
DILUPBiCGStab:  Solving for ILambda_11_0, Initial residual = 1, Final residual = 4.99790908387e-61, No Iterations 179
DILUPBiCGStab:  Solving for ILambda_12_0, Initial residual = 1, Final residual = 3.69386546126e-61, No Iterations 184
DILUPBiCGStab:  Solving for ILambda_13_0, Initial residual = 1, Final residual = 3.32981211194e-61, No Iterations 166
DILUPBiCGStab:  Solving for ILambda_14_0, Initial residual = 1, Final residual = 5.38948433089e-61, No Iterations 141
DILUPBiCGStab:  Solving for ILambda_15_0, Initial residual = 1, Final residual = 1.84149254072e-61, No Iterations 84
DILUPBiCGStab:  Solving for ILambda_16_0, Initial residual = 1, Final residual = 2.48857804087e-61, No Iterations 47
DILUPBiCGStab:  Solving for ILambda_17_0, Initial residual = 1, Final residual = 1.29801872656e-62, No Iterations 50
DILUPBiCGStab:  Solving for ILambda_18_0, Initial residual = 1, Final residual = 7.07586771065e-61, No Iterations 50
DILUPBiCGStab:  Solving for ILambda_19_0, Initial residual = 1, Final residual = 3.77382540999e-61, No Iterations 51
DILUPBiCGStab:  Solving for ILambda_20_0, Initial residual = 1, Final residual = 3.29547150359e-61, No Iterations 51
DILUPBiCGStab:  Solving for ILambda_21_0, Initial residual = 1, Final residual = 5.35942243374e-61, No Iterations 51
DILUPBiCGStab:  Solving for ILambda_22_0, Initial residual = 1, Final residual = 6.86987139031e-61, No Iterations 49
DILUPBiCGStab:  Solving for ILambda_23_0, Initial residual = 1, Final residual = 6.65855210755e-61, No Iterations 47
DILUPBiCGStab:  Solving for ILambda_24_0, Initial residual = 1, Final residual = 7.90593808927e-61, No Iterations 83
DILUPBiCGStab:  Solving for ILambda_25_0, Initial residual = 1, Final residual = 5.51588555907e-61, No Iterations 138
DILUPBiCGStab:  Solving for ILambda_26_0, Initial residual = 1, Final residual = 4.24199810484e-61, No Iterations 166
DILUPBiCGStab:  Solving for ILambda_27_0, Initial residual = 1, Final residual = 4.00125220396e-61, No Iterations 183
DILUPBiCGStab:  Solving for ILambda_28_0, Initial residual = 1, Final residual = 9.68937552879e-61, No Iterations 180
DILUPBiCGStab:  Solving for ILambda_29_0, Initial residual = 1, Final residual = 9.75598204968e-61, No Iterations 165
DILUPBiCGStab:  Solving for ILambda_30_0, Initial residual = 1, Final residual = 8.56434205352e-61, No Iterations 138
DILUPBiCGStab:  Solving for ILambda_31_0, Initial residual = 1, Final residual = 4.73479305347e-61, No Iterations 83
DILUPBiCGStab:  Solving for ILambda_32_0, Initial residual = 1, Final residual = 2.8721166246e-70, No Iterations 3
DILUPBiCGStab:  Solving for ILambda_33_0, Initial residual = 1, Final residual = 3.7691232285e-72, No Iterations 3
DILUPBiCGStab:  Solving for ILambda_34_0, Initial residual = 1, Final residual = 9.02624003059e-69, No Iterations 3
DILUPBiCGStab:  Solving for ILambda_35_0, Initial residual = 1, Final residual = 3.19873706498e-73, No Iterations 3
DILUPBiCGStab:  Solving for ILambda_36_0, Initial residual = 1, Final residual = 9.19852059049e-76, No Iterations 3
DILUPBiCGStab:  Solving for ILambda_37_0, Initial residual = 1, Final residual = 1.19517121977e-69, No Iterations 3
DILUPBiCGStab:  Solving for ILambda_38_0, Initial residual = 1, Final residual = 1.64299407837e-70, No Iterations 3
DILUPBiCGStab:  Solving for ILambda_39_0, Initial residual = 1, Final residual = 2.37437552777e-71, No Iterations 3
DILUPBiCGStab:  Solving for ILambda_40_0, Initial residual = 1, Final residual = 2.87362721727e-61, No Iterations 85
DILUPBiCGStab:  Solving for ILambda_41_0, Initial residual = 1, Final residual = 3.74175824065e-61, No Iterations 138
DILUPBiCGStab:  Solving for ILambda_42_0, Initial residual = 1, Final residual = 2.76607195533e-61, No Iterations 171
DILUPBiCGStab:  Solving for ILambda_43_0, Initial residual = 1, Final residual = 9.02409634258e-61, No Iterations 187
DILUPBiCGStab:  Solving for ILambda_44_0, Initial residual = 1, Final residual = 3.62255591029e-61, No Iterations 187
DILUPBiCGStab:  Solving for ILambda_45_0, Initial residual = 1, Final residual = 9.83019141124e-61, No Iterations 165
DILUPBiCGStab:  Solving for ILambda_46_0, Initial residual = 1, Final residual = 3.08764087951e-61, No Iterations 138
DILUPBiCGStab:  Solving for ILambda_47_0, Initial residual = 1, Final residual = 4.79603472163e-61, No Iterations 86
DILUPBiCGStab:  Solving for ILambda_48_0, Initial residual = 1, Final residual = 5.30796488174e-61, No Iterations 62
DILUPBiCGStab:  Solving for ILambda_49_0, Initial residual = 1, Final residual = 8.29319962251e-61, No Iterations 68
DILUPBiCGStab:  Solving for ILambda_50_0, Initial residual = 1, Final residual = 3.28279616121e-62, No Iterations 71
DILUPBiCGStab:  Solving for ILambda_51_0, Initial residual = 1, Final residual = 7.32988546426e-61, No Iterations 71
DILUPBiCGStab:  Solving for ILambda_52_0, Initial residual = 1, Final residual = 4.1095810763e-61, No Iterations 72
DILUPBiCGStab:  Solving for ILambda_53_0, Initial residual = 1, Final residual = 3.84740823854e-61, No Iterations 71
DILUPBiCGStab:  Solving for ILambda_54_0, Initial residual = 1, Final residual = 3.09664640861e-61, No Iterations 68
DILUPBiCGStab:  Solving for ILambda_55_0, Initial residual = 1, Final residual = 5.78515169481e-61, No Iterations 62
DILUPBiCGStab:  Solving for ILambda_56_0, Initial residual = 1, Final residual = 7.27373249791e-62, No Iterations 88
DILUPBiCGStab:  Solving for ILambda_57_0, Initial residual = 1, Final residual = 4.17536094673e-61, No Iterations 140
DILUPBiCGStab:  Solving for ILambda_58_0, Initial residual = 1, Final residual = 1.56126077582e-61, No Iterations 168
DILUPBiCGStab:  Solving for ILambda_59_0, Initial residual = 1, Final residual = 8.11559638566e-61, No Iterations 188
DILUPBiCGStab:  Solving for ILambda_60_0, Initial residual = 1, Final residual = 9.60118385029e-61, No Iterations 187
DILUPBiCGStab:  Solving for ILambda_61_0, Initial residual = 1, Final residual = 5.59546365632e-61, No Iterations 168
DILUPBiCGStab:  Solving for ILambda_62_0, Initial residual = 1, Final residual = 6.73027638621e-61, No Iterations 139
DILUPBiCGStab:  Solving for ILambda_63_0, Initial residual = 1, Final residual = 2.06370185013e-61, No Iterations 84
DILUPBiCGStab:  Solving for ILambda_64_0, Initial residual = 1, Final residual = 3.3183739854e-61, No Iterations 64
DILUPBiCGStab:  Solving for ILambda_65_0, Initial residual = 1, Final residual = 2.13431607371e-61, No Iterations 67
DILUPBiCGStab:  Solving for ILambda_66_0, Initial residual = 1, Final residual = 8.69945209419e-62, No Iterations 68
DILUPBiCGStab:  Solving for ILambda_67_0, Initial residual = 1, Final residual = 1.07394772416e-61, No Iterations 68
DILUPBiCGStab:  Solving for ILambda_68_0, Initial residual = 1, Final residual = 4.95755785116e-61, No Iterations 71
DILUPBiCGStab:  Solving for ILambda_69_0, Initial residual = 1, Final residual = 7.92176418668e-61, No Iterations 69
DILUPBiCGStab:  Solving for ILambda_70_0, Initial residual = 1, Final residual = 3.95307572747e-62, No Iterations 67
DILUPBiCGStab:  Solving for ILambda_71_0, Initial residual = 1, Final residual = 7.54880740378e-61, No Iterations 63
DILUPBiCGStab:  Solving for ILambda_72_0, Initial residual = 1, Final residual = 3.04451081025e-61, No Iterations 84
DILUPBiCGStab:  Solving for ILambda_73_0, Initial residual = 1, Final residual = 2.96104984405e-61, No Iterations 135
DILUPBiCGStab:  Solving for ILambda_74_0, Initial residual = 1, Final residual = 3.78265196823e-61, No Iterations 168
DILUPBiCGStab:  Solving for ILambda_75_0, Initial residual = 1, Final residual = 3.35225004435e-61, No Iterations 184
DILUPBiCGStab:  Solving for ILambda_76_0, Initial residual = 1, Final residual = 5.51809288405e-61, No Iterations 186
DILUPBiCGStab:  Solving for ILambda_77_0, Initial residual = 1, Final residual = 6.67352999887e-61, No Iterations 168
DILUPBiCGStab:  Solving for ILambda_78_0, Initial residual = 1, Final residual = 3.60829053794e-61, No Iterations 139
DILUPBiCGStab:  Solving for ILambda_79_0, Initial residual = 1, Final residual = 3.14811841667e-61, No Iterations 86
DILUPBiCGStab:  Solving for ILambda_80_0, Initial residual = 1, Final residual = 1.15458909282e-71, No Iterations 3
DILUPBiCGStab:  Solving for ILambda_81_0, Initial residual = 1, Final residual = 2.5177057059e-74, No Iterations 3
DILUPBiCGStab:  Solving for ILambda_82_0, Initial residual = 1, Final residual = 5.58514382767e-69, No Iterations 3
DILUPBiCGStab:  Solving for ILambda_83_0, Initial residual = 1, Final residual = 5.93650176846e-75, No Iterations 3
DILUPBiCGStab:  Solving for ILambda_84_0, Initial residual = 1, Final residual = 2.82939815039e-61, No Iterations 3
DILUPBiCGStab:  Solving for ILambda_85_0, Initial residual = 1, Final residual = 1.09878427556e-74, No Iterations 3
DILUPBiCGStab:  Solving for ILambda_86_0, Initial residual = 1, Final residual = 1.49095156506e-73, No Iterations 3
DILUPBiCGStab:  Solving for ILambda_87_0, Initial residual = 1, Final residual = 3.1891102876e-72, No Iterations 3
DILUPBiCGStab:  Solving for ILambda_88_0, Initial residual = 1, Final residual = 4.3153055724e-61, No Iterations 85
DILUPBiCGStab:  Solving for ILambda_89_0, Initial residual = 1, Final residual = 5.30630484126e-61, No Iterations 140
DILUPBiCGStab:  Solving for ILambda_90_0, Initial residual = 1, Final residual = 7.17550848152e-61, No Iterations 166
DILUPBiCGStab:  Solving for ILambda_91_0, Initial residual = 1, Final residual = 1.38151254573e-61, No Iterations 189
DILUPBiCGStab:  Solving for ILambda_92_0, Initial residual = 1, Final residual = 6.8198881485e-61, No Iterations 185
DILUPBiCGStab:  Solving for ILambda_93_0, Initial residual = 1, Final residual = 3.02789541711e-61, No Iterations 165
DILUPBiCGStab:  Solving for ILambda_94_0, Initial residual = 1, Final residual = 8.65812714964e-61, No Iterations 137
DILUPBiCGStab:  Solving for ILambda_95_0, Initial residual = 1, Final residual = 5.28925271505e-61, No Iterations 83
DILUPBiCGStab:  Solving for ILambda_96_0, Initial residual = 1, Final residual = 6.05796969574e-61, No Iterations 49
DILUPBiCGStab:  Solving for ILambda_97_0, Initial residual = 1, Final residual = 2.32228315025e-62, No Iterations 52
DILUPBiCGStab:  Solving for ILambda_98_0, Initial residual = 1, Final residual = 7.23277735411e-62, No Iterations 53
DILUPBiCGStab:  Solving for ILambda_99_0, Initial residual = 1, Final residual = 3.90383658384e-61, No Iterations 53
DILUPBiCGStab:  Solving for ILambda_100_0, Initial residual = 1, Final residual = 5.68536399423e-62, No Iterations 53
DILUPBiCGStab:  Solving for ILambda_101_0, Initial residual = 1, Final residual = 1.41673344668e-61, No Iterations 53
DILUPBiCGStab:  Solving for ILambda_102_0, Initial residual = 1, Final residual = 2.03796906818e-61, No Iterations 52
DILUPBiCGStab:  Solving for ILambda_103_0, Initial residual = 1, Final residual = 2.08124559772e-61, No Iterations 49
DILUPBiCGStab:  Solving for ILambda_104_0, Initial residual = 1, Final residual = 2.98119949094e-61, No Iterations 83
DILUPBiCGStab:  Solving for ILambda_105_0, Initial residual = 1, Final residual = 2.53892614298e-61, No Iterations 139
DILUPBiCGStab:  Solving for ILambda_106_0, Initial residual = 1, Final residual = 9.26344929153e-61, No Iterations 166
DILUPBiCGStab:  Solving for ILambda_107_0, Initial residual = 1, Final residual = 3.01576492126e-61, No Iterations 180
DILUPBiCGStab:  Solving for ILambda_108_0, Initial residual = 1, Final residual = 1.47434474552e-61, No Iterations 181
DILUPBiCGStab:  Solving for ILambda_109_0, Initial residual = 1, Final residual = 4.44043043225e-61, No Iterations 162
DILUPBiCGStab:  Solving for ILambda_110_0, Initial residual = 1, Final residual = 5.79241374847e-61, No Iterations 136
DILUPBiCGStab:  Solving for ILambda_111_0, Initial residual = 1, Final residual = 8.54983913628e-61, No Iterations 83
DILUPBiCGStab:  Solving for ILambda_112_0, Initial residual = 1, Final residual = 1.36972436013e-72, No Iterations 3
DILUPBiCGStab:  Solving for ILambda_113_0, Initial residual = 1, Final residual = 3.06244459233e-72, No Iterations 3
DILUPBiCGStab:  Solving for ILambda_114_0, Initial residual = 1, Final residual = 1.71722758938e-72, No Iterations 3
DILUPBiCGStab:  Solving for ILambda_115_0, Initial residual = 1, Final residual = 2.3493135383e-73, No Iterations 3
DILUPBiCGStab:  Solving for ILambda_116_0, Initial residual = 1, Final residual = 1.15576229395e-73, No Iterations 3
DILUPBiCGStab:  Solving for ILambda_117_0, Initial residual = 1, Final residual = 1.5622809855e-64, No Iterations 3
DILUPBiCGStab:  Solving for ILambda_118_0, Initial residual = 1, Final residual = 6.97307852526e-66, No Iterations 3
DILUPBiCGStab:  Solving for ILambda_119_0, Initial residual = 1, Final residual = 3.60267521237e-74, No Iterations 3
DILUPBiCGStab:  Solving for ILambda_120_0, Initial residual = 1, Final residual = 6.60200143676e-61, No Iterations 84
DILUPBiCGStab:  Solving for ILambda_121_0, Initial residual = 1, Final residual = 8.77680126574e-61, No Iterations 136
DILUPBiCGStab:  Solving for ILambda_122_0, Initial residual = 1, Final residual = 4.29059629308e-61, No Iterations 162
DILUPBiCGStab:  Solving for ILambda_123_0, Initial residual = 1, Final residual = 3.2772756707e-61, No Iterations 176
DILUPBiCGStab:  Solving for ILambda_124_0, Initial residual = 1, Final residual = 7.1488612765e-61, No Iterations 178
DILUPBiCGStab:  Solving for ILambda_125_0, Initial residual = 1, Final residual = 5.48764887003e-61, No Iterations 167
DILUPBiCGStab:  Solving for ILambda_126_0, Initial residual = 1, Final residual = 2.30481680626e-61, No Iterations 140
DILUPBiCGStab:  Solving for ILambda_127_0, Initial residual = 1, Final residual = 9.08958484878e-61, No Iterations 83
Radiation solver iter: 1
DILUPBiCGStab:  Solving for ILambda_0_0, Initial residual = 3.35455021252e-16, Final residual = 8.90712853316e-74, No Iterations 2
DILUPBiCGStab:  Solving for ILambda_1_0, Initial residual = 3.48865123366e-16, Final residual = 3.4122910037e-73, No Iterations 2
DILUPBiCGStab:  Solving for ILambda_2_0, Initial residual = 3.52376900878e-16, Final residual = 3.74927956465e-74, No Iterations 2
DILUPBiCGStab:  Solving for ILambda_3_0, Initial residual = 3.75858750006e-16, Final residual = 1.2224444498e-73, No Iterations 2
DILUPBiCGStab:  Solving for ILambda_4_0, Initial residual = 3.76954842699e-16, Final residual = 3.98307193795e-73, No Iterations 2
DILUPBiCGStab:  Solving for ILambda_5_0, Initial residual = 3.91062132149e-16, Final residual = 7.18939176012e-74, No Iterations 2
DILUPBiCGStab:  Solving for ILambda_6_0, Initial residual = 3.84805007454e-16, Final residual = 1.13783576545e-73, No Iterations 2
DILUPBiCGStab:  Solving for ILambda_7_0, Initial residual = 3.67384543785e-16, Final residual = 1.94201566549e-73, No Iterations 2
DILUPBiCGStab:  Solving for ILambda_8_0, Initial residual = 1.7390925661e-14, Final residual = 8.89301058001e-61, No Iterations 55
DILUPBiCGStab:  Solving for ILambda_9_0, Initial residual = 1.5039215889e-10, Final residual = 6.25436289817e-61, No Iterations 80
DILUPBiCGStab:  Solving for ILambda_10_0, Initial residual = 9.49683325073e-09, Final residual = 4.409815942e-61, No Iterations 98
DILUPBiCGStab:  Solving for ILambda_11_0, Initial residual = 1.06509413652e-08, Final residual = 7.11811457191e-61, No Iterations 115
DILUPBiCGStab:  Solving for ILambda_12_0, Initial residual = 4.28569424467e-09, Final residual = 4.03979350104e-61, No Iterations 116
DILUPBiCGStab:  Solving for ILambda_13_0, Initial residual = 1.37782389786e-08, Final residual = 9.32224846678e-61, No Iterations 101
DILUPBiCGStab:  Solving for ILambda_14_0, Initial residual = 2.02170454005e-12, Final residual = 7.62840655542e-61, No Iterations 89
DILUPBiCGStab:  Solving for ILambda_15_0, Initial residual = 2.44035455724e-14, Final residual = 5.0300175408e-61, No Iterations 55
DILUPBiCGStab:  Solving for ILambda_16_0, Initial residual = 6.37422979606e-15, Final residual = 1.01383246328e-61, No Iterations 29
DILUPBiCGStab:  Solving for ILambda_17_0, Initial residual = 9.88045249778e-15, Final residual = 5.41032274255e-61, No Iterations 30
DILUPBiCGStab:  Solving for ILambda_18_0, Initial residual = 5.26794802251e-14, Final residual = 7.92135921013e-61, No Iterations 32
DILUPBiCGStab:  Solving for ILambda_19_0, Initial residual = 1.14638974449e-13, Final residual = 2.80178048347e-61, No Iterations 33
DILUPBiCGStab:  Solving for ILambda_20_0, Initial residual = 1.09513341101e-13, Final residual = 1.39388484245e-61, No Iterations 34
DILUPBiCGStab:  Solving for ILambda_21_0, Initial residual = 4.83220393332e-14, Final residual = 5.28717167915e-61, No Iterations 31
DILUPBiCGStab:  Solving for ILambda_22_0, Initial residual = 8.31672063479e-15, Final residual = 2.00937536656e-61, No Iterations 28
DILUPBiCGStab:  Solving for ILambda_23_0, Initial residual = 5.7890584042e-15, Final residual = 1.42987669172e-61, No Iterations 27
DILUPBiCGStab:  Solving for ILambda_24_0, Initial residual = 2.5064466287e-14, Final residual = 2.35507695897e-63, No Iterations 56
DILUPBiCGStab:  Solving for ILambda_25_0, Initial residual = 1.58355056933e-12, Final residual = 1.96823965922e-61, No Iterations 90
DILUPBiCGStab:  Solving for ILambda_26_0, Initial residual = 5.68228448846e-09, Final residual = 8.917163376e-61, No Iterations 99
DILUPBiCGStab:  Solving for ILambda_27_0, Initial residual = 8.00248945151e-09, Final residual = 4.51607052905e-61, No Iterations 119
DILUPBiCGStab:  Solving for ILambda_28_0, Initial residual = 7.9793555239e-09, Final residual = 7.6782510526e-61, No Iterations 115
DILUPBiCGStab:  Solving for ILambda_29_0, Initial residual = 5.38194322784e-08, Final residual = 5.44149150206e-61, No Iterations 97
DILUPBiCGStab:  Solving for ILambda_30_0, Initial residual = 9.43309989692e-11, Final residual = 1.01592510258e-63, No Iterations 84
DILUPBiCGStab:  Solving for ILambda_31_0, Initial residual = 1.79202678514e-14, Final residual = 6.9021392137e-62, No Iterations 58
DILUPBiCGStab:  Solving for ILambda_32_0, Initial residual = 1.65183419565e-15, Final residual = 5.00261507337e-73, No Iterations 2
DILUPBiCGStab:  Solving for ILambda_33_0, Initial residual = 1.68944205931e-15, Final residual = 9.63388312399e-73, No Iterations 2
DILUPBiCGStab:  Solving for ILambda_34_0, Initial residual = 1.55253701283e-15, Final residual = 6.99743525061e-74, No Iterations 2
DILUPBiCGStab:  Solving for ILambda_35_0, Initial residual = 1.50105583796e-15, Final residual = 5.42443092283e-74, No Iterations 2
DILUPBiCGStab:  Solving for ILambda_36_0, Initial residual = 1.51224549906e-15, Final residual = 9.48998431829e-74, No Iterations 2
DILUPBiCGStab:  Solving for ILambda_37_0, Initial residual = 1.56904646413e-15, Final residual = 1.2792047093e-72, No Iterations 2
DILUPBiCGStab:  Solving for ILambda_38_0, Initial residual = 2.08391642957e-15, Final residual = 1.24635602162e-73, No Iterations 2
DILUPBiCGStab:  Solving for ILambda_39_0, Initial residual = 2.00934805745e-15, Final residual = 2.06614775254e-73, No Iterations 2
DILUPBiCGStab:  Solving for ILambda_40_0, Initial residual = 7.83829987826e-14, Final residual = 2.92840535282e-61, No Iterations 56
DILUPBiCGStab:  Solving for ILambda_41_0, Initial residual = 5.98444366171e-12, Final residual = 9.03992410218e-61, No Iterations 92
DILUPBiCGStab:  Solving for ILambda_42_0, Initial residual = 1.16379103113e-10, Final residual = 6.69579543727e-61, No Iterations 112
DILUPBiCGStab:  Solving for ILambda_43_0, Initial residual = 7.45405772061e-09, Final residual = 5.08674645584e-61, No Iterations 125
DILUPBiCGStab:  Solving for ILambda_44_0, Initial residual = 2.24849317624e-07, Final residual = 4.6985293688e-61, No Iterations 119
DILUPBiCGStab:  Solving for ILambda_45_0, Initial residual = 2.04901106688e-11, Final residual = 7.50575955287e-61, No Iterations 114
DILUPBiCGStab:  Solving for ILambda_46_0, Initial residual = 5.02066325494e-11, Final residual = 3.49378447503e-61, No Iterations 92
DILUPBiCGStab:  Solving for ILambda_47_0, Initial residual = 1.17647063893e-13, Final residual = 7.72484115623e-61, No Iterations 56
DILUPBiCGStab:  Solving for ILambda_48_0, Initial residual = 1.27161201593e-13, Final residual = 5.29818750894e-61, No Iterations 39
DILUPBiCGStab:  Solving for ILambda_49_0, Initial residual = 2.28488194103e-13, Final residual = 7.61155811355e-61, No Iterations 39
DILUPBiCGStab:  Solving for ILambda_50_0, Initial residual = 5.77226058821e-12, Final residual = 4.40266122499e-61, No Iterations 40
DILUPBiCGStab:  Solving for ILambda_51_0, Initial residual = 8.97890835738e-13, Final residual = 6.31597323578e-61, No Iterations 41
DILUPBiCGStab:  Solving for ILambda_52_0, Initial residual = 9.05002442984e-13, Final residual = 9.86621695771e-62, No Iterations 41
DILUPBiCGStab:  Solving for ILambda_53_0, Initial residual = 8.46336990867e-12, Final residual = 4.53373001323e-62, No Iterations 42
DILUPBiCGStab:  Solving for ILambda_54_0, Initial residual = 2.26274020806e-13, Final residual = 1.06274255653e-61, No Iterations 40
DILUPBiCGStab:  Solving for ILambda_55_0, Initial residual = 1.16094520304e-13, Final residual = 1.73812514313e-61, No Iterations 40
DILUPBiCGStab:  Solving for ILambda_56_0, Initial residual = 1.9346698535e-13, Final residual = 3.66422502924e-61, No Iterations 56
DILUPBiCGStab:  Solving for ILambda_57_0, Initial residual = 3.28740170259e-11, Final residual = 5.06267540819e-62, No Iterations 90
DILUPBiCGStab:  Solving for ILambda_58_0, Initial residual = 1.64733485807e-11, Final residual = 9.20512796231e-61, No Iterations 113
DILUPBiCGStab:  Solving for ILambda_59_0, Initial residual = 2.40507665691e-08, Final residual = 8.39268058955e-61, No Iterations 122
DILUPBiCGStab:  Solving for ILambda_60_0, Initial residual = 7.40413394982e-09, Final residual = 3.58241175661e-61, No Iterations 119
DILUPBiCGStab:  Solving for ILambda_61_0, Initial residual = 1.04352840425e-10, Final residual = 5.94864920443e-61, No Iterations 117
DILUPBiCGStab:  Solving for ILambda_62_0, Initial residual = 4.0157975656e-12, Final residual = 5.80303619935e-61, No Iterations 88
DILUPBiCGStab:  Solving for ILambda_63_0, Initial residual = 7.74962491118e-14, Final residual = 6.35208802673e-61, No Iterations 57
DILUPBiCGStab:  Solving for ILambda_64_0, Initial residual = 4.79232663541e-15, Final residual = 5.66816653166e-61, No Iterations 41
DILUPBiCGStab:  Solving for ILambda_65_0, Initial residual = 5.20262416688e-15, Final residual = 7.48916861956e-61, No Iterations 38
DILUPBiCGStab:  Solving for ILambda_66_0, Initial residual = 5.22085532256e-15, Final residual = 2.30812197067e-61, No Iterations 40
DILUPBiCGStab:  Solving for ILambda_67_0, Initial residual = 5.36816048065e-15, Final residual = 4.09772615664e-61, No Iterations 42
DILUPBiCGStab:  Solving for ILambda_68_0, Initial residual = 5.27355344907e-15, Final residual = 8.29155625404e-61, No Iterations 41
DILUPBiCGStab:  Solving for ILambda_69_0, Initial residual = 5.10809526228e-15, Final residual = 3.44144264206e-61, No Iterations 41
DILUPBiCGStab:  Solving for ILambda_70_0, Initial residual = 5.4775057859e-15, Final residual = 2.31833015318e-61, No Iterations 38
DILUPBiCGStab:  Solving for ILambda_71_0, Initial residual = 5.09913771341e-15, Final residual = 4.92141015244e-61, No Iterations 36
DILUPBiCGStab:  Solving for ILambda_72_0, Initial residual = 3.98946247442e-14, Final residual = 3.66488775473e-62, No Iterations 59
DILUPBiCGStab:  Solving for ILambda_73_0, Initial residual = 1.81089035948e-11, Final residual = 7.92144705912e-61, No Iterations 91
DILUPBiCGStab:  Solving for ILambda_74_0, Initial residual = 2.40609989253e-11, Final residual = 8.72072792003e-61, No Iterations 116
DILUPBiCGStab:  Solving for ILambda_75_0, Initial residual = 9.40112344798e-09, Final residual = 8.77965345606e-61, No Iterations 122
DILUPBiCGStab:  Solving for ILambda_76_0, Initial residual = 1.19345832317e-07, Final residual = 8.00431606627e-61, No Iterations 114
DILUPBiCGStab:  Solving for ILambda_77_0, Initial residual = 6.01674357471e-11, Final residual = 8.08745302913e-61, No Iterations 117
DILUPBiCGStab:  Solving for ILambda_78_0, Initial residual = 1.5482753914e-12, Final residual = 3.81951880044e-61, No Iterations 92
DILUPBiCGStab:  Solving for ILambda_79_0, Initial residual = 7.99822199106e-14, Final residual = 2.94161216393e-61, No Iterations 57
DILUPBiCGStab:  Solving for ILambda_80_0, Initial residual = 2.08772682431e-15, Final residual = 4.61573434985e-71, No Iterations 2
DILUPBiCGStab:  Solving for ILambda_81_0, Initial residual = 2.19638326892e-15, Final residual = 2.47718098781e-70, No Iterations 2
DILUPBiCGStab:  Solving for ILambda_82_0, Initial residual = 1.50179775131e-15, Final residual = 2.600658897e-70, No Iterations 2
DILUPBiCGStab:  Solving for ILambda_83_0, Initial residual = 1.4690479676e-15, Final residual = 3.7101733384e-71, No Iterations 2
DILUPBiCGStab:  Solving for ILambda_84_0, Initial residual = 1.51251484087e-15, Final residual = 3.21857713711e-72, No Iterations 2
DILUPBiCGStab:  Solving for ILambda_85_0, Initial residual = 1.54780359208e-15, Final residual = 8.49077450092e-70, No Iterations 2
DILUPBiCGStab:  Solving for ILambda_86_0, Initial residual = 1.70713377697e-15, Final residual = 3.29278480957e-71, No Iterations 2
DILUPBiCGStab:  Solving for ILambda_87_0, Initial residual = 1.6471171684e-15, Final residual = 6.68330380892e-70, No Iterations 2
DILUPBiCGStab:  Solving for ILambda_88_0, Initial residual = 8.08752623135e-14, Final residual = 3.96359512444e-61, No Iterations 56
DILUPBiCGStab:  Solving for ILambda_89_0, Initial residual = 1.56059949845e-12, Final residual = 6.38364038375e-61, No Iterations 92
DILUPBiCGStab:  Solving for ILambda_90_0, Initial residual = 1.3173446335e-10, Final residual = 6.78567855822e-61, No Iterations 113
DILUPBiCGStab:  Solving for ILambda_91_0, Initial residual = 2.16919844034e-08, Final residual = 4.12541413073e-61, No Iterations 121
DILUPBiCGStab:  Solving for ILambda_92_0, Initial residual = 2.19557011349e-09, Final residual = 7.29774452276e-61, No Iterations 125
DILUPBiCGStab:  Solving for ILambda_93_0, Initial residual = 2.07943555063e-11, Final residual = 8.8667204777e-61, No Iterations 113
DILUPBiCGStab:  Solving for ILambda_94_0, Initial residual = 4.57467254209e-11, Final residual = 1.31996213222e-61, No Iterations 91
DILUPBiCGStab:  Solving for ILambda_95_0, Initial residual = 4.03940559765e-14, Final residual = 6.2359147086e-61, No Iterations 61
DILUPBiCGStab:  Solving for ILambda_96_0, Initial residual = 8.78697680733e-16, Final residual = 1.15603615062e-61, No Iterations 27
DILUPBiCGStab:  Solving for ILambda_97_0, Initial residual = 1.80183090458e-15, Final residual = 1.82708304453e-62, No Iterations 31
DILUPBiCGStab:  Solving for ILambda_98_0, Initial residual = 9.6909043446e-16, Final residual = 3.06317514491e-61, No Iterations 28
DILUPBiCGStab:  Solving for ILambda_99_0, Initial residual = 1.02534695805e-15, Final residual = 3.47926474846e-61, No Iterations 28
DILUPBiCGStab:  Solving for ILambda_100_0, Initial residual = 1.03422465155e-15, Final residual = 8.56085646175e-61, No Iterations 28
DILUPBiCGStab:  Solving for ILambda_101_0, Initial residual = 1.01739824464e-15, Final residual = 1.50667179745e-61, No Iterations 30
DILUPBiCGStab:  Solving for ILambda_102_0, Initial residual = 1.87655330243e-15, Final residual = 1.80626947604e-61, No Iterations 30
DILUPBiCGStab:  Solving for ILambda_103_0, Initial residual = 9.12395220577e-16, Final residual = 7.68049838329e-61, No Iterations 29
DILUPBiCGStab:  Solving for ILambda_104_0, Initial residual = 9.05975381933e-15, Final residual = 8.2039697175e-61, No Iterations 56
DILUPBiCGStab:  Solving for ILambda_105_0, Initial residual = 6.34189156543e-13, Final residual = 8.80759265822e-61, No Iterations 93
DILUPBiCGStab:  Solving for ILambda_106_0, Initial residual = 1.49417940378e-08, Final residual = 9.89221189185e-61, No Iterations 101
DILUPBiCGStab:  Solving for ILambda_107_0, Initial residual = 1.05811615664e-08, Final residual = 4.00576030217e-61, No Iterations 121
DILUPBiCGStab:  Solving for ILambda_108_0, Initial residual = 4.6385575121e-08, Final residual = 8.37812637012e-61, No Iterations 111
DILUPBiCGStab:  Solving for ILambda_109_0, Initial residual = 6.80390165666e-09, Final residual = 8.3084855246e-61, No Iterations 101
DILUPBiCGStab:  Solving for ILambda_110_0, Initial residual = 1.06809403056e-10, Final residual = 9.23241651929e-63, No Iterations 82
DILUPBiCGStab:  Solving for ILambda_111_0, Initial residual = 1.66314883205e-14, Final residual = 9.8240406448e-61, No Iterations 55
DILUPBiCGStab:  Solving for ILambda_112_0, Initial residual = 3.72543552729e-16, Final residual = 4.37521436238e-69, No Iterations 2
DILUPBiCGStab:  Solving for ILambda_113_0, Initial residual = 3.87527332981e-16, Final residual = 1.47147666876e-69, No Iterations 2
DILUPBiCGStab:  Solving for ILambda_114_0, Initial residual = 3.93123636714e-16, Final residual = 2.69970841423e-70, No Iterations 2
DILUPBiCGStab:  Solving for ILambda_115_0, Initial residual = 3.86764125002e-16, Final residual = 1.10832200133e-70, No Iterations 2
DILUPBiCGStab:  Solving for ILambda_116_0, Initial residual = 3.82194837382e-16, Final residual = 1.21652839501e-71, No Iterations 2
DILUPBiCGStab:  Solving for ILambda_117_0, Initial residual = 3.44580157006e-16, Final residual = 1.12877393744e-72, No Iterations 2
DILUPBiCGStab:  Solving for ILambda_118_0, Initial residual = 3.4457676285e-16, Final residual = 2.84625972647e-71, No Iterations 2
DILUPBiCGStab:  Solving for ILambda_119_0, Initial residual = 3.36507706021e-16, Final residual = 4.56984036326e-71, No Iterations 2
DILUPBiCGStab:  Solving for ILambda_120_0, Initial residual = 1.66220333018e-14, Final residual = 8.78888577762e-61, No Iterations 56
DILUPBiCGStab:  Solving for ILambda_121_0, Initial residual = 6.14160203134e-11, Final residual = 2.19742163729e-61, No Iterations 81
DILUPBiCGStab:  Solving for ILambda_122_0, Initial residual = 3.34558203464e-09, Final residual = 6.83992469363e-61, No Iterations 101
DILUPBiCGStab:  Solving for ILambda_123_0, Initial residual = 1.60567160018e-08, Final residual = 3.44636531033e-61, No Iterations 116
DILUPBiCGStab:  Solving for ILambda_124_0, Initial residual = 1.23724086811e-08, Final residual = 8.63435280658e-61, No Iterations 115
DILUPBiCGStab:  Solving for ILambda_125_0, Initial residual = 3.91188481292e-08, Final residual = 6.78743536309e-61, No Iterations 99
DILUPBiCGStab:  Solving for ILambda_126_0, Initial residual = 7.25950365818e-13, Final residual = 8.89415868797e-61, No Iterations 92
DILUPBiCGStab:  Solving for ILambda_127_0, Initial residual = 8.91339367297e-15, Final residual = 4.73374041772e-61, No Iterations 57
Radiation solver iter: 2
DILUPBiCGStab:  Solving for ILambda_10_0, Initial residual = 9.09569476232e-16, Final residual = 6.57004038994e-61, No Iterations 113
DILUPBiCGStab:  Solving for ILambda_11_0, Initial residual = 1.04420277775e-15, Final residual = 4.35972219771e-61, No Iterations 131
DILUPBiCGStab:  Solving for ILambda_12_0, Initial residual = 1.01009607896e-15, Final residual = 4.89551841818e-61, No Iterations 131
DILUPBiCGStab:  Solving for ILambda_13_0, Initial residual = 9.32062260676e-16, Final residual = 4.91571966937e-61, No Iterations 116
DILUPBiCGStab:  Solving for ILambda_26_0, Initial residual = 9.03599240845e-16, Final residual = 8.52812178168e-61, No Iterations 116
DILUPBiCGStab:  Solving for ILambda_27_0, Initial residual = 1.03483762292e-15, Final residual = 5.36295863578e-61, No Iterations 132
DILUPBiCGStab:  Solving for ILambda_28_0, Initial residual = 1.05676158132e-15, Final residual = 5.32375438597e-61, No Iterations 126
DILUPBiCGStab:  Solving for ILambda_29_0, Initial residual = 9.04267459884e-16, Final residual = 6.99406601516e-61, No Iterations 117
DILUPBiCGStab:  Solving for ILambda_42_0, Initial residual = 4.6026686794e-15, Final residual = 4.96500582171e-61, No Iterations 114
DILUPBiCGStab:  Solving for ILambda_43_0, Initial residual = 4.64272149639e-15, Final residual = 6.52712634607e-61, No Iterations 132
DILUPBiCGStab:  Solving for ILambda_44_0, Initial residual = 4.47767223686e-15, Final residual = 6.02085690317e-61, No Iterations 131
DILUPBiCGStab:  Solving for ILambda_59_0, Initial residual = 4.55496063674e-15, Final residual = 4.62066773185e-61, No Iterations 136
DILUPBiCGStab:  Solving for ILambda_60_0, Initial residual = 4.58768899313e-15, Final residual = 7.47700260836e-61, No Iterations 128
DILUPBiCGStab:  Solving for ILambda_61_0, Initial residual = 4.7880229915e-15, Final residual = 3.56295294186e-61, No Iterations 114
DILUPBiCGStab:  Solving for ILambda_75_0, Initial residual = 4.48905348798e-15, Final residual = 7.88267598923e-61, No Iterations 125
DILUPBiCGStab:  Solving for ILambda_76_0, Initial residual = 4.24730709864e-15, Final residual = 3.55967339672e-61, No Iterations 129
DILUPBiCGStab:  Solving for ILambda_90_0, Initial residual = 4.47463620179e-15, Final residual = 3.34747752359e-61, No Iterations 114
DILUPBiCGStab:  Solving for ILambda_91_0, Initial residual = 4.49252613152e-15, Final residual = 6.92028347088e-61, No Iterations 125
DILUPBiCGStab:  Solving for ILambda_92_0, Initial residual = 4.60802157591e-15, Final residual = 6.18552965553e-61, No Iterations 129
DILUPBiCGStab:  Solving for ILambda_106_0, Initial residual = 9.02378449452e-16, Final residual = 9.72433175418e-61, No Iterations 114
DILUPBiCGStab:  Solving for ILambda_107_0, Initial residual = 1.0352642813e-15, Final residual = 2.11578512449e-61, No Iterations 133
DILUPBiCGStab:  Solving for ILambda_108_0, Initial residual = 1.0077541498e-15, Final residual = 4.44554381016e-61, No Iterations 129
DILUPBiCGStab:  Solving for ILambda_109_0, Initial residual = 9.1710211436e-16, Final residual = 5.59738649788e-61, No Iterations 119
DILUPBiCGStab:  Solving for ILambda_122_0, Initial residual = 9.42600080991e-16, Final residual = 9.46862351743e-61, No Iterations 108
DILUPBiCGStab:  Solving for ILambda_123_0, Initial residual = 1.02149167643e-15, Final residual = 6.39130728198e-61, No Iterations 124
DILUPBiCGStab:  Solving for ILambda_124_0, Initial residual = 1.02308217789e-15, Final residual = 4.55213652163e-61, No Iterations 132
DILUPBiCGStab:  Solving for ILambda_125_0, Initial residual = 9.01168022491e-16, Final residual = 7.23367202441e-61, No Iterations 116
min/max(T) = 1000, 1000
PIMPLE: iteration 2
Radiation solver iter: 0
DILUPBiCGStab:  Solving for ILambda_0_0, Initial residual = 3.32600095079e-16, Final residual = 5.15374193684e-74, No Iterations 2
DILUPBiCGStab:  Solving for ILambda_1_0, Initial residual = 3.45551086324e-16, Final residual = 2.16846003308e-73, No Iterations 2
DILUPBiCGStab:  Solving for ILambda_2_0, Initial residual = 3.34801808635e-16, Final residual = 7.75710211434e-74, No Iterations 2
DILUPBiCGStab:  Solving for ILambda_3_0, Initial residual = 3.7917526425e-16, Final residual = 2.40491947583e-73, No Iterations 2
DILUPBiCGStab:  Solving for ILambda_4_0, Initial residual = 3.76075649251e-16, Final residual = 5.05859905819e-73, No Iterations 2
DILUPBiCGStab:  Solving for ILambda_5_0, Initial residual = 3.79896861492e-16, Final residual = 2.68864948547e-74, No Iterations 2
DILUPBiCGStab:  Solving for ILambda_6_0, Initial residual = 3.86490370294e-16, Final residual = 5.77711440988e-74, No Iterations 2
DILUPBiCGStab:  Solving for ILambda_7_0, Initial residual = 3.65190403623e-16, Final residual = 1.20109352604e-73, No Iterations 2
DILUPBiCGStab:  Solving for ILambda_8_0, Initial residual = 5.48320402799e-16, Final residual = 2.72329552953e-61, No Iterations 58
DILUPBiCGStab:  Solving for ILambda_9_0, Initial residual = 7.47403631731e-16, Final residual = 1.72769277788e-61, No Iterations 96
DILUPBiCGStab:  Solving for ILambda_10_0, Initial residual = 5.43314343106e-16, Final residual = 9.82887228355e-61, No Iterations 117
DILUPBiCGStab:  Solving for ILambda_11_0, Initial residual = 7.36475529126e-16, Final residual = 4.72420725907e-61, No Iterations 132
DILUPBiCGStab:  Solving for ILambda_12_0, Initial residual = 6.9680608923e-16, Final residual = 7.41369265117e-61, No Iterations 129
DILUPBiCGStab:  Solving for ILambda_13_0, Initial residual = 6.50035003855e-16, Final residual = 3.35035367626e-61, No Iterations 116
DILUPBiCGStab:  Solving for ILambda_14_0, Initial residual = 8.74221084301e-16, Final residual = 3.75545489216e-61, No Iterations 93
DILUPBiCGStab:  Solving for ILambda_15_0, Initial residual = 5.65093882311e-16, Final residual = 4.84989034923e-61, No Iterations 57
DILUPBiCGStab:  Solving for ILambda_16_0, Initial residual = 3.68934065324e-16, Final residual = 4.7304556204e-61, No Iterations 28
DILUPBiCGStab:  Solving for ILambda_17_0, Initial residual = 3.88011817869e-16, Final residual = 9.30837890719e-61, No Iterations 28
DILUPBiCGStab:  Solving for ILambda_18_0, Initial residual = 3.91135100277e-16, Final residual = 1.48792854547e-61, No Iterations 29
DILUPBiCGStab:  Solving for ILambda_19_0, Initial residual = 3.83280190156e-16, Final residual = 2.65040509464e-61, No Iterations 28
DILUPBiCGStab:  Solving for ILambda_20_0, Initial residual = 3.78710134722e-16, Final residual = 1.34882461017e-61, No Iterations 30
DILUPBiCGStab:  Solving for ILambda_21_0, Initial residual = 3.51842480534e-16, Final residual = 4.27787946217e-61, No Iterations 29
DILUPBiCGStab:  Solving for ILambda_22_0, Initial residual = 3.49602617225e-16, Final residual = 4.51588545188e-61, No Iterations 28
DILUPBiCGStab:  Solving for ILambda_23_0, Initial residual = 3.34842136748e-16, Final residual = 1.96852910315e-61, No Iterations 27
DILUPBiCGStab:  Solving for ILambda_24_0, Initial residual = 5.64830310424e-16, Final residual = 9.33129566425e-61, No Iterations 57
DILUPBiCGStab:  Solving for ILambda_25_0, Initial residual = 8.5830564671e-16, Final residual = 1.48330100405e-61, No Iterations 94
DILUPBiCGStab:  Solving for ILambda_26_0, Initial residual = 7.99630818848e-16, Final residual = 2.12124062002e-61, No Iterations 117
DILUPBiCGStab:  Solving for ILambda_27_0, Initial residual = 6.69204208264e-16, Final residual = 8.04958817183e-61, No Iterations 129
DILUPBiCGStab:  Solving for ILambda_28_0, Initial residual = 6.95732697985e-16, Final residual = 8.22757238744e-61, No Iterations 128
DILUPBiCGStab:  Solving for ILambda_29_0, Initial residual = 6.89411849079e-16, Final residual = 3.93567280558e-61, No Iterations 114
DILUPBiCGStab:  Solving for ILambda_30_0, Initial residual = 7.77868421081e-16, Final residual = 3.64539317927e-61, No Iterations 91
DILUPBiCGStab:  Solving for ILambda_31_0, Initial residual = 5.73571172701e-16, Final residual = 4.09951504964e-61, No Iterations 61
DILUPBiCGStab:  Solving for ILambda_32_0, Initial residual = 1.63261209154e-15, Final residual = 3.53796950152e-73, No Iterations 2
DILUPBiCGStab:  Solving for ILambda_33_0, Initial residual = 1.67300705088e-15, Final residual = 7.77039864855e-74, No Iterations 2
DILUPBiCGStab:  Solving for ILambda_34_0, Initial residual = 1.57171968108e-15, Final residual = 4.17962503933e-73, No Iterations 2
DILUPBiCGStab:  Solving for ILambda_35_0, Initial residual = 1.47598196039e-15, Final residual = 3.93510756213e-74, No Iterations 2
DILUPBiCGStab:  Solving for ILambda_36_0, Initial residual = 1.47752131541e-15, Final residual = 2.25410721411e-74, No Iterations 2
DILUPBiCGStab:  Solving for ILambda_37_0, Initial residual = 1.57844269119e-15, Final residual = 1.46434262131e-71, No Iterations 2
DILUPBiCGStab:  Solving for ILambda_38_0, Initial residual = 2.07679491442e-15, Final residual = 6.71512725614e-73, No Iterations 2
DILUPBiCGStab:  Solving for ILambda_39_0, Initial residual = 1.97904412607e-15, Final residual = 1.76001974101e-73, No Iterations 2
DILUPBiCGStab:  Solving for ILambda_40_0, Initial residual = 2.71901795298e-15, Final residual = 6.40647080127e-61, No Iterations 60
DILUPBiCGStab:  Solving for ILambda_41_0, Initial residual = 4.00658310119e-15, Final residual = 5.99767203457e-61, No Iterations 96
DILUPBiCGStab:  Solving for ILambda_42_0, Initial residual = 3.09267353128e-15, Final residual = 4.41711638165e-61, No Iterations 122
DILUPBiCGStab:  Solving for ILambda_43_0, Initial residual = 3.57333197217e-15, Final residual = 4.90838037596e-61, No Iterations 135
DILUPBiCGStab:  Solving for ILambda_44_0, Initial residual = 3.86293038957e-15, Final residual = 8.29917296892e-61, No Iterations 125
DILUPBiCGStab:  Solving for ILambda_45_0, Initial residual = 4.49687527598e-15, Final residual = 5.04247540613e-61, No Iterations 118
DILUPBiCGStab:  Solving for ILambda_46_0, Initial residual = 4.09596819893e-15, Final residual = 6.95399364399e-61, No Iterations 95
DILUPBiCGStab:  Solving for ILambda_47_0, Initial residual = 2.79868576617e-15, Final residual = 8.94569888503e-61, No Iterations 61
DILUPBiCGStab:  Solving for ILambda_48_0, Initial residual = 2.00699179322e-15, Final residual = 6.90274560092e-61, No Iterations 35
DILUPBiCGStab:  Solving for ILambda_49_0, Initial residual = 2.07977663488e-15, Final residual = 2.86908989591e-62, No Iterations 37
DILUPBiCGStab:  Solving for ILambda_50_0, Initial residual = 1.55806352771e-15, Final residual = 5.70412827591e-61, No Iterations 35
DILUPBiCGStab:  Solving for ILambda_51_0, Initial residual = 1.56793829542e-15, Final residual = 6.16255226912e-61, No Iterations 36
DILUPBiCGStab:  Solving for ILambda_52_0, Initial residual = 1.55313679503e-15, Final residual = 2.24650182406e-61, No Iterations 39
DILUPBiCGStab:  Solving for ILambda_53_0, Initial residual = 2.06713388819e-15, Final residual = 3.37893746125e-61, No Iterations 37
DILUPBiCGStab:  Solving for ILambda_54_0, Initial residual = 1.69966732098e-15, Final residual = 3.67714003068e-61, No Iterations 37
DILUPBiCGStab:  Solving for ILambda_55_0, Initial residual = 1.649777956e-15, Final residual = 1.70988221676e-61, No Iterations 34
DILUPBiCGStab:  Solving for ILambda_56_0, Initial residual = 2.77078616018e-15, Final residual = 3.06846640272e-62, No Iterations 60
DILUPBiCGStab:  Solving for ILambda_57_0, Initial residual = 4.03476351823e-15, Final residual = 3.62285905748e-61, No Iterations 92
DILUPBiCGStab:  Solving for ILambda_58_0, Initial residual = 4.67460796081e-15, Final residual = 3.50980688923e-61, No Iterations 119
DILUPBiCGStab:  Solving for ILambda_59_0, Initial residual = 4.17826749272e-15, Final residual = 7.23309754862e-61, No Iterations 127
DILUPBiCGStab:  Solving for ILambda_60_0, Initial residual = 3.81668831018e-15, Final residual = 7.598047469e-61, No Iterations 129
DILUPBiCGStab:  Solving for ILambda_61_0, Initial residual = 3.48605418821e-15, Final residual = 5.2737098594e-61, No Iterations 118
DILUPBiCGStab:  Solving for ILambda_62_0, Initial residual = 3.90112182011e-15, Final residual = 5.39591114901e-61, No Iterations 96
DILUPBiCGStab:  Solving for ILambda_63_0, Initial residual = 2.75367447588e-15, Final residual = 7.40208221566e-61, No Iterations 59
DILUPBiCGStab:  Solving for ILambda_64_0, Initial residual = 1.64964110593e-15, Final residual = 3.2233879707e-61, No Iterations 36
DILUPBiCGStab:  Solving for ILambda_65_0, Initial residual = 1.71261395067e-15, Final residual = 2.11293335058e-61, No Iterations 37
DILUPBiCGStab:  Solving for ILambda_66_0, Initial residual = 1.53328518961e-15, Final residual = 2.15256294947e-61, No Iterations 37
DILUPBiCGStab:  Solving for ILambda_67_0, Initial residual = 1.49700166055e-15, Final residual = 6.42098016578e-61, No Iterations 40
DILUPBiCGStab:  Solving for ILambda_68_0, Initial residual = 1.62303603832e-15, Final residual = 2.94618860773e-61, No Iterations 38
DILUPBiCGStab:  Solving for ILambda_69_0, Initial residual = 1.55206563137e-15, Final residual = 9.49282535133e-61, No Iterations 36
DILUPBiCGStab:  Solving for ILambda_70_0, Initial residual = 2.20084476153e-15, Final residual = 1.23368522804e-61, No Iterations 37
DILUPBiCGStab:  Solving for ILambda_71_0, Initial residual = 2.08121946456e-15, Final residual = 1.72439870615e-61, No Iterations 35
DILUPBiCGStab:  Solving for ILambda_72_0, Initial residual = 2.40295246895e-15, Final residual = 8.54588187737e-61, No Iterations 60
DILUPBiCGStab:  Solving for ILambda_73_0, Initial residual = 3.80310597841e-15, Final residual = 7.42810191853e-61, No Iterations 94
DILUPBiCGStab:  Solving for ILambda_74_0, Initial residual = 4.53093048872e-15, Final residual = 6.59350256146e-61, No Iterations 114
DILUPBiCGStab:  Solving for ILambda_75_0, Initial residual = 4.06649390556e-15, Final residual = 3.41634172293e-61, No Iterations 126
DILUPBiCGStab:  Solving for ILambda_76_0, Initial residual = 3.13648946167e-15, Final residual = 3.86587557925e-61, No Iterations 133
DILUPBiCGStab:  Solving for ILambda_77_0, Initial residual = 4.35129418691e-15, Final residual = 7.87517364935e-61, No Iterations 116
DILUPBiCGStab:  Solving for ILambda_78_0, Initial residual = 4.02793428247e-15, Final residual = 6.17306857236e-61, No Iterations 94
DILUPBiCGStab:  Solving for ILambda_79_0, Initial residual = 2.91096172543e-15, Final residual = 7.66991905823e-61, No Iterations 60
DILUPBiCGStab:  Solving for ILambda_80_0, Initial residual = 2.06691253357e-15, Final residual = 7.01428070007e-71, No Iterations 2
DILUPBiCGStab:  Solving for ILambda_81_0, Initial residual = 2.13122782152e-15, Final residual = 5.61660705215e-72, No Iterations 2
DILUPBiCGStab:  Solving for ILambda_82_0, Initial residual = 1.55447036668e-15, Final residual = 3.49999893039e-71, No Iterations 2
DILUPBiCGStab:  Solving for ILambda_83_0, Initial residual = 1.46175624441e-15, Final residual = 7.20222262977e-71, No Iterations 2
DILUPBiCGStab:  Solving for ILambda_84_0, Initial residual = 1.48367938792e-15, Final residual = 2.28693597534e-72, No Iterations 2
DILUPBiCGStab:  Solving for ILambda_85_0, Initial residual = 1.51488171697e-15, Final residual = 2.07564541532e-70, No Iterations 2
DILUPBiCGStab:  Solving for ILambda_86_0, Initial residual = 1.69810519679e-15, Final residual = 8.35203129023e-72, No Iterations 2
DILUPBiCGStab:  Solving for ILambda_87_0, Initial residual = 1.63481364742e-15, Final residual = 3.69186283798e-70, No Iterations 2
DILUPBiCGStab:  Solving for ILambda_88_0, Initial residual = 2.8313451497e-15, Final residual = 5.89729448746e-61, No Iterations 59
DILUPBiCGStab:  Solving for ILambda_89_0, Initial residual = 3.90299575082e-15, Final residual = 2.8989190234e-61, No Iterations 96
DILUPBiCGStab:  Solving for ILambda_90_0, Initial residual = 3.12261883504e-15, Final residual = 8.38402880151e-61, No Iterations 114
DILUPBiCGStab:  Solving for ILambda_91_0, Initial residual = 3.71727667972e-15, Final residual = 7.93813821863e-61, No Iterations 132
DILUPBiCGStab:  Solving for ILambda_92_0, Initial residual = 3.6299569919e-15, Final residual = 6.5773435423e-61, No Iterations 128
DILUPBiCGStab:  Solving for ILambda_93_0, Initial residual = 4.38648498826e-15, Final residual = 3.00279193849e-61, No Iterations 118
DILUPBiCGStab:  Solving for ILambda_94_0, Initial residual = 3.78813601669e-15, Final residual = 9.87750350437e-61, No Iterations 95
DILUPBiCGStab:  Solving for ILambda_95_0, Initial residual = 2.70872367965e-15, Final residual = 7.57713792523e-61, No Iterations 60
DILUPBiCGStab:  Solving for ILambda_96_0, Initial residual = 3.31800522487e-16, Final residual = 2.5300819506e-61, No Iterations 26
DILUPBiCGStab:  Solving for ILambda_97_0, Initial residual = 3.44139487443e-16, Final residual = 1.0546190475e-61, No Iterations 27
DILUPBiCGStab:  Solving for ILambda_98_0, Initial residual = 3.37596481616e-16, Final residual = 8.96493395793e-61, No Iterations 29
DILUPBiCGStab:  Solving for ILambda_99_0, Initial residual = 3.81902534059e-16, Final residual = 1.2881932005e-61, No Iterations 28
DILUPBiCGStab:  Solving for ILambda_100_0, Initial residual = 3.80468544679e-16, Final residual = 9.81840415385e-62, No Iterations 29
DILUPBiCGStab:  Solving for ILambda_101_0, Initial residual = 3.78943806477e-16, Final residual = 1.14875356173e-61, No Iterations 29
DILUPBiCGStab:  Solving for ILambda_102_0, Initial residual = 3.91916297585e-16, Final residual = 1.61560815769e-61, No Iterations 29
DILUPBiCGStab:  Solving for ILambda_103_0, Initial residual = 3.67088053386e-16, Final residual = 7.23072647396e-61, No Iterations 27
DILUPBiCGStab:  Solving for ILambda_104_0, Initial residual = 5.82166965531e-16, Final residual = 5.08862587409e-61, No Iterations 55
DILUPBiCGStab:  Solving for ILambda_105_0, Initial residual = 8.42630100937e-16, Final residual = 1.5736713788e-61, No Iterations 94
DILUPBiCGStab:  Solving for ILambda_106_0, Initial residual = 8.5410561892e-16, Final residual = 3.57068345268e-61, No Iterations 115
DILUPBiCGStab:  Solving for ILambda_107_0, Initial residual = 7.58585937493e-16, Final residual = 1.14066144053e-61, No Iterations 129
DILUPBiCGStab:  Solving for ILambda_108_0, Initial residual = 7.17819321637e-16, Final residual = 5.04357326603e-61, No Iterations 131
DILUPBiCGStab:  Solving for ILambda_109_0, Initial residual = 8.66242265029e-16, Final residual = 4.75094352493e-61, No Iterations 114
DILUPBiCGStab:  Solving for ILambda_110_0, Initial residual = 7.77929549973e-16, Final residual = 1.94420889652e-61, No Iterations 93
DILUPBiCGStab:  Solving for ILambda_111_0, Initial residual = 5.59659867312e-16, Final residual = 8.95211661343e-61, No Iterations 58
DILUPBiCGStab:  Solving for ILambda_112_0, Initial residual = 3.72552587786e-16, Final residual = 8.05601306962e-71, No Iterations 2
DILUPBiCGStab:  Solving for ILambda_113_0, Initial residual = 3.88553278064e-16, Final residual = 1.4969848558e-72, No Iterations 2
DILUPBiCGStab:  Solving for ILambda_114_0, Initial residual = 3.86983551778e-16, Final residual = 1.06621480042e-70, No Iterations 2
DILUPBiCGStab:  Solving for ILambda_115_0, Initial residual = 3.86496481928e-16, Final residual = 1.74108866857e-71, No Iterations 2
DILUPBiCGStab:  Solving for ILambda_116_0, Initial residual = 3.8409319493e-16, Final residual = 2.39043159716e-70, No Iterations 2
DILUPBiCGStab:  Solving for ILambda_117_0, Initial residual = 3.26616531432e-16, Final residual = 4.77001724141e-72, No Iterations 2
DILUPBiCGStab:  Solving for ILambda_118_0, Initial residual = 3.42600240322e-16, Final residual = 7.57222536882e-72, No Iterations 2
DILUPBiCGStab:  Solving for ILambda_119_0, Initial residual = 3.3243495419e-16, Final residual = 1.11966796757e-72, No Iterations 2
DILUPBiCGStab:  Solving for ILambda_120_0, Initial residual = 5.85622927107e-16, Final residual = 3.44968279381e-61, No Iterations 58
DILUPBiCGStab:  Solving for ILambda_121_0, Initial residual = 7.81096489951e-16, Final residual = 4.0576371522e-61, No Iterations 92
DILUPBiCGStab:  Solving for ILambda_122_0, Initial residual = 8.29505974808e-16, Final residual = 7.11427772804e-61, No Iterations 110
DILUPBiCGStab:  Solving for ILambda_123_0, Initial residual = 7.338430387e-16, Final residual = 7.23745762621e-61, No Iterations 130
DILUPBiCGStab:  Solving for ILambda_124_0, Initial residual = 8.03270371377e-16, Final residual = 8.69252937154e-62, No Iterations 129
DILUPBiCGStab:  Solving for ILambda_125_0, Initial residual = 7.76112209062e-16, Final residual = 6.00971415524e-61, No Iterations 115
DILUPBiCGStab:  Solving for ILambda_126_0, Initial residual = 8.39263947779e-16, Final residual = 2.35630200115e-61, No Iterations 93
DILUPBiCGStab:  Solving for ILambda_127_0, Initial residual = 5.43612289339e-16, Final residual = 3.53544252417e-61, No Iterations 57
min/max(T) = 1000, 1000
PIMPLE: iteration 3
Radiation solver iter: 0
DILUPBiCGStab:  Solving for ILambda_0_0, Initial residual = 3.36041171089e-16, Final residual = 2.64538147364e-74, No Iterations 2
DILUPBiCGStab:  Solving for ILambda_1_0, Initial residual = 3.38594695107e-16, Final residual = 2.11514789391e-73, No Iterations 2
DILUPBiCGStab:  Solving for ILambda_2_0, Initial residual = 3.36940794331e-16, Final residual = 2.90935901869e-74, No Iterations 2
DILUPBiCGStab:  Solving for ILambda_3_0, Initial residual = 3.78326492735e-16, Final residual = 8.69365434581e-74, No Iterations 2
DILUPBiCGStab:  Solving for ILambda_4_0, Initial residual = 3.81446908125e-16, Final residual = 2.15698850611e-72, No Iterations 2
DILUPBiCGStab:  Solving for ILambda_5_0, Initial residual = 3.7361654564e-16, Final residual = 6.07617068403e-74, No Iterations 2
DILUPBiCGStab:  Solving for ILambda_6_0, Initial residual = 3.82627193955e-16, Final residual = 8.59430241887e-74, No Iterations 2
DILUPBiCGStab:  Solving for ILambda_7_0, Initial residual = 3.64685441876e-16, Final residual = 6.54561275941e-74, No Iterations 2
DILUPBiCGStab:  Solving for ILambda_8_0, Initial residual = 4.65645375851e-16, Final residual = 3.38717719448e-61, No Iterations 59
DILUPBiCGStab:  Solving for ILambda_9_0, Initial residual = 6.49273569299e-16, Final residual = 6.50278120383e-61, No Iterations 93
DILUPBiCGStab:  Solving for ILambda_10_0, Initial residual = 6.17576320639e-16, Final residual = 7.07045934869e-61, No Iterations 113
DILUPBiCGStab:  Solving for ILambda_11_0, Initial residual = 6.08022855802e-16, Final residual = 4.43320875644e-61, No Iterations 135
DILUPBiCGStab:  Solving for ILambda_12_0, Initial residual = 6.18695052003e-16, Final residual = 6.66431489306e-61, No Iterations 129
DILUPBiCGStab:  Solving for ILambda_13_0, Initial residual = 6.14592178913e-16, Final residual = 8.92235568265e-61, No Iterations 112
DILUPBiCGStab:  Solving for ILambda_14_0, Initial residual = 6.34261949705e-16, Final residual = 4.68738917077e-62, No Iterations 96
DILUPBiCGStab:  Solving for ILambda_15_0, Initial residual = 4.04663516941e-16, Final residual = 3.06458840315e-61, No Iterations 57
DILUPBiCGStab:  Solving for ILambda_16_0, Initial residual = 3.71586285327e-16, Final residual = 4.49999924287e-61, No Iterations 27
DILUPBiCGStab:  Solving for ILambda_17_0, Initial residual = 3.88232892539e-16, Final residual = 3.11950044785e-61, No Iterations 30
DILUPBiCGStab:  Solving for ILambda_18_0, Initial residual = 3.87676162354e-16, Final residual = 7.26799476959e-61, No Iterations 31
DILUPBiCGStab:  Solving for ILambda_19_0, Initial residual = 3.81467905257e-16, Final residual = 1.68911524871e-61, No Iterations 30
DILUPBiCGStab:  Solving for ILambda_20_0, Initial residual = 3.77479233706e-16, Final residual = 8.08296684086e-62, No Iterations 30
DILUPBiCGStab:  Solving for ILambda_21_0, Initial residual = 3.30222085334e-16, Final residual = 3.51389807901e-61, No Iterations 28
DILUPBiCGStab:  Solving for ILambda_22_0, Initial residual = 3.46437912064e-16, Final residual = 1.88873646551e-61, No Iterations 27
DILUPBiCGStab:  Solving for ILambda_23_0, Initial residual = 3.34187312694e-16, Final residual = 8.0135633444e-61, No Iterations 27
DILUPBiCGStab:  Solving for ILambda_24_0, Initial residual = 4.03758395092e-16, Final residual = 2.82853464422e-61, No Iterations 57
DILUPBiCGStab:  Solving for ILambda_25_0, Initial residual = 6.4547093406e-16, Final residual = 7.37798623216e-61, No Iterations 93
DILUPBiCGStab:  Solving for ILambda_26_0, Initial residual = 8.08278775423e-16, Final residual = 5.7637547444e-61, No Iterations 116
DILUPBiCGStab:  Solving for ILambda_27_0, Initial residual = 6.61351740038e-16, Final residual = 6.63798693793e-61, No Iterations 132
DILUPBiCGStab:  Solving for ILambda_28_0, Initial residual = 5.93353025734e-16, Final residual = 9.6627391162e-61, No Iterations 128
DILUPBiCGStab:  Solving for ILambda_29_0, Initial residual = 5.24301155167e-16, Final residual = 7.49793635979e-61, No Iterations 118
DILUPBiCGStab:  Solving for ILambda_30_0, Initial residual = 5.2380675216e-16, Final residual = 4.12768882398e-61, No Iterations 98
DILUPBiCGStab:  Solving for ILambda_31_0, Initial residual = 4.09857109546e-16, Final residual = 2.95261921871e-61, No Iterations 58
DILUPBiCGStab:  Solving for ILambda_32_0, Initial residual = 1.62505428859e-15, Final residual = 1.58349780737e-73, No Iterations 2
DILUPBiCGStab:  Solving for ILambda_33_0, Initial residual = 1.6698145362e-15, Final residual = 2.22090570963e-73, No Iterations 2
DILUPBiCGStab:  Solving for ILambda_34_0, Initial residual = 1.55612376902e-15, Final residual = 3.10323353949e-74, No Iterations 2
DILUPBiCGStab:  Solving for ILambda_35_0, Initial residual = 1.45822629057e-15, Final residual = 1.86811918626e-74, No Iterations 2
DILUPBiCGStab:  Solving for ILambda_36_0, Initial residual = 1.51107338627e-15, Final residual = 2.00100011278e-73, No Iterations 2
DILUPBiCGStab:  Solving for ILambda_37_0, Initial residual = 1.5492150111e-15, Final residual = 4.89037519145e-73, No Iterations 2
[...]
DILUPBiCGStab:  Solving for ILambda_108_0, Initial residual = 7.13248906163e-16, Final residual = 4.4305631418e-61, No Iterations 131
DILUPBiCGStab:  Solving for ILambda_109_0, Initial residual = 9.19325321276e-16, Final residual = 6.05558204781e-61, No Iterations 108
DILUPBiCGStab:  Solving for ILambda_110_0, Initial residual = 4.93276589012e-16, Final residual = 3.48602847642e-61, No Iterations 90
DILUPBiCGStab:  Solving for ILambda_111_0, Initial residual = 4.6198808173e-16, Final residual = 3.95667841484e-61, No Iterations 58
DILUPBiCGStab:  Solving for ILambda_112_0, Initial residual = 3.65436204085e-16, Final residual = 3.31871116524e-71, No Iterations 2
DILUPBiCGStab:  Solving for ILambda_113_0, Initial residual = 3.88918201934e-16, Final residual = 1.18023815015e-72, No Iterations 2
DILUPBiCGStab:  Solving for ILambda_114_0, Initial residual = 3.82812659316e-16, Final residual = 1.33297045071e-71, No Iterations 2
DILUPBiCGStab:  Solving for ILambda_115_0, Initial residual = 3.84536150051e-16, Final residual = 3.06566891995e-72, No Iterations 2
DILUPBiCGStab:  Solving for ILambda_116_0, Initial residual = 3.84142520614e-16, Final residual = 1.12155997798e-70, No Iterations 2
DILUPBiCGStab:  Solving for ILambda_117_0, Initial residual = 3.30686298634e-16, Final residual = 1.37600959379e-72, No Iterations 2
DILUPBiCGStab:  Solving for ILambda_118_0, Initial residual = 3.45312784346e-16, Final residual = 4.54766670147e-72, No Iterations 2
DILUPBiCGStab:  Solving for ILambda_119_0, Initial residual = 3.33270467661e-16, Final residual = 7.83969777081e-71, No Iterations 2
DILUPBiCGStab:  Solving for ILambda_120_0, Initial residual = 4.26351676189e-16, Final residual = 1.12921442768e-61, No Iterations 58
DILUPBiCGStab:  Solving for ILambda_121_0, Initial residual = 5.89167793489e-16, Final residual = 2.61003383446e-61, No Iterations 95
DILUPBiCGStab:  Solving for ILambda_122_0, Initial residual = 7.77629038289e-16, Final residual = 6.93523617192e-61, No Iterations 111
DILUPBiCGStab:  Solving for ILambda_123_0, Initial residual = 7.30402984756e-16, Final residual = 9.28879702454e-61, No Iterations 131
DILUPBiCGStab:  Solving for ILambda_124_0, Initial residual = 7.89303550345e-16, Final residual = 4.29981903175e-61, No Iterations 131
DILUPBiCGStab:  Solving for ILambda_125_0, Initial residual = 6.49628344631e-16, Final residual = 3.88405916911e-61, No Iterations 111
DILUPBiCGStab:  Solving for ILambda_126_0, Initial residual = 6.41674740986e-16, Final residual = 5.91202519616e-61, No Iterations 94
DILUPBiCGStab:  Solving for ILambda_127_0, Initial residual = 3.86685223975e-16, Final residual = 7.03249037207e-61, No Iterations 59
min/max(T) = 1000, 1000
PIMPLE: iteration 10
Radiation solver iter: 0
DILUPBiCGStab:  Solving for ILambda_0_0, Initial residual = 3.3465384102e-16, Final residual = 1.64590514385e-74, No Iterations 2
DILUPBiCGStab:  Solving for ILambda_1_0, Initial residual = 3.44361223134e-16, Final residual = 2.3218062119e-73, No Iterations 2
DILUPBiCGStab:  Solving for ILambda_2_0, Initial residual = 3.26552256539e-16, Final residual = 9.9218913387e-75, No Iterations 2
DILUPBiCGStab:  Solving for ILambda_3_0, Initial residual = 3.70428855219e-16, Final residual = 2.01910423985e-72, No Iterations 2
DILUPBiCGStab:  Solving for ILambda_4_0, Initial residual = 3.76955001854e-16, Final residual = 2.23514354398e-74, No Iterations 2
DILUPBiCGStab:  Solving for ILambda_5_0, Initial residual = 3.77042380782e-16, Final residual = 7.93191146942e-74, No Iterations 2
DILUPBiCGStab:  Solving for ILambda_6_0, Initial residual = 3.84377753778e-16, Final residual = 1.2557961126e-73, No Iterations 2
DILUPBiCGStab:  Solving for ILambda_7_0, Initial residual = 3.6297981517e-16, Final residual = 6.13998177248e-74, No Iterations 2
DILUPBiCGStab:  Solving for ILambda_8_0, Initial residual = 3.8596884956e-16, Final residual = 8.15641772699e-61, No Iterations 55
DILUPBiCGStab:  Solving for ILambda_9_0, Initial residual = 6.02786312166e-16, Final residual = 4.91865319892e-61, No Iterations 92
DILUPBiCGStab:  Solving for ILambda_10_0, Initial residual = 5.52163049955e-16, Final residual = 7.58734566869e-61, No Iterations 112
DILUPBiCGStab:  Solving for ILambda_11_0, Initial residual = 6.55449542613e-16, Final residual = 9.91978337932e-61, No Iterations 132
DILUPBiCGStab:  Solving for ILambda_12_0, Initial residual = 6.21001174268e-16, Final residual = 1.25211063858e-61, No Iterations 131
DILUPBiCGStab:  Solving for ILambda_13_0, Initial residual = 6.66507082224e-16, Final residual = 2.42029980667e-61, No Iterations 114
DILUPBiCGStab:  Solving for ILambda_14_0, Initial residual = 4.79379473351e-16, Final residual = 4.14604636584e-61, No Iterations 90
DILUPBiCGStab:  Solving for ILambda_15_0, Initial residual = 4.09660773662e-16, Final residual = 1.40688378452e-61, No Iterations 57
DILUPBiCGStab:  Solving for ILambda_16_0, Initial residual = 3.68636334799e-16, Final residual = 3.70405594989e-61, No Iterations 27
DILUPBiCGStab:  Solving for ILambda_17_0, Initial residual = 3.80797952946e-16, Final residual = 2.80433697213e-61, No Iterations 28
DILUPBiCGStab:  Solving for ILambda_18_0, Initial residual = 3.79066695138e-16, Final residual = 2.16480079375e-61, No Iterations 29
DILUPBiCGStab:  Solving for ILambda_19_0, Initial residual = 3.81033472258e-16, Final residual = 3.50046731332e-61, No Iterations 31
DILUPBiCGStab:  Solving for ILambda_20_0, Initial residual = 3.77284964024e-16, Final residual = 4.62225018366e-61, No Iterations 27
DILUPBiCGStab:  Solving for ILambda_21_0, Initial residual = 3.37196277634e-16, Final residual = 6.08607734404e-61, No Iterations 28
DILUPBiCGStab:  Solving for ILambda_22_0, Initial residual = 3.46896606792e-16, Final residual = 2.07576024568e-61, No Iterations 28
DILUPBiCGStab:  Solving for ILambda_23_0, Initial residual = 3.32442801316e-16, Final residual = 1.91641337407e-61, No Iterations 27
DILUPBiCGStab:  Solving for ILambda_24_0, Initial residual = 4.17764287294e-16, Final residual = 5.36415187466e-61, No Iterations 59
DILUPBiCGStab:  Solving for ILambda_25_0, Initial residual = 6.14245260849e-16, Final residual = 8.28582945045e-61, No Iterations 93
DILUPBiCGStab:  Solving for ILambda_26_0, Initial residual = 7.54323440237e-16, Final residual = 3.83401153274e-61, No Iterations 114
DILUPBiCGStab:  Solving for ILambda_27_0, Initial residual = 6.47016683867e-16, Final residual = 3.36690591331e-61, No Iterations 129
DILUPBiCGStab:  Solving for ILambda_28_0, Initial residual = 5.94546901298e-16, Final residual = 9.28583866289e-61, No Iterations 130
DILUPBiCGStab:  Solving for ILambda_29_0, Initial residual = 6.33181789902e-16, Final residual = 7.9520456304e-61, No Iterations 114
DILUPBiCGStab:  Solving for ILambda_30_0, Initial residual = 5.51171895615e-16, Final residual = 8.21343615084e-61, No Iterations 94
DILUPBiCGStab:  Solving for ILambda_31_0, Initial residual = 3.97087686064e-16, Final residual = 6.63037995471e-61, No Iterations 56
DILUPBiCGStab:  Solving for ILambda_32_0, Initial residual = 1.61191921889e-15, Final residual = 1.72701151924e-73, No Iterations 2
DILUPBiCGStab:  Solving for ILambda_33_0, Initial residual = 1.67180981313e-15, Final residual = 2.30686738727e-73, No Iterations 2
DILUPBiCGStab:  Solving for ILambda_34_0, Initial residual = 1.55572853695e-15, Final residual = 7.63172605901e-74, No Iterations 2
DILUPBiCGStab:  Solving for ILambda_35_0, Initial residual = 1.47715047556e-15, Final residual = 6.80076889516e-74, No Iterations 2
DILUPBiCGStab:  Solving for ILambda_36_0, Initial residual = 1.49472967683e-15, Final residual = 4.79980691868e-74, No Iterations 2
DILUPBiCGStab:  Solving for ILambda_37_0, Initial residual = 1.56286808897e-15, Final residual = 1.55963237505e-73, No Iterations 2
DILUPBiCGStab:  Solving for ILambda_38_0, Initial residual = 2.07344257209e-15, Final residual = 5.40142417461e-73, No Iterations 2
DILUPBiCGStab:  Solving for ILambda_39_0, Initial residual = 1.98234318291e-15, Final residual = 1.52563456567e-73, No Iterations 2
DILUPBiCGStab:  Solving for ILambda_40_0, Initial residual = 2.06136767601e-15, Final residual = 9.11602046824e-61, No Iterations 56
DILUPBiCGStab:  Solving for ILambda_41_0, Initial residual = 2.37789589778e-15, Final residual = 6.61020753263e-61, No Iterations 93
DILUPBiCGStab:  Solving for ILambda_42_0, Initial residual = 3.02147877939e-15, Final residual = 4.61091010004e-61, No Iterations 115
DILUPBiCGStab:  Solving for ILambda_43_0, Initial residual = 3.35668703157e-15, Final residual = 7.39381879003e-61, No Iterations 129
DILUPBiCGStab:  Solving for ILambda_44_0, Initial residual = 2.721104595e-15, Final residual = 2.7828898445e-61, No Iterations 128
DILUPBiCGStab:  Solving for ILambda_45_0, Initial residual = 2.99962834125e-15, Final residual = 4.03912791703e-61, No Iterations 117
DILUPBiCGStab:  Solving for ILambda_46_0, Initial residual = 2.91155203614e-15, Final residual = 4.09936328487e-61, No Iterations 95
DILUPBiCGStab:  Solving for ILambda_47_0, Initial residual = 2.2198231411e-15, Final residual = 4.36238126738e-61, No Iterations 60
DILUPBiCGStab:  Solving for ILambda_48_0, Initial residual = 1.99113362888e-15, Final residual = 2.46921242292e-61, No Iterations 35
DILUPBiCGStab:  Solving for ILambda_49_0, Initial residual = 2.0805241277e-15, Final residual = 5.92370903332e-61, No Iterations 37
DILUPBiCGStab:  Solving for ILambda_50_0, Initial residual = 1.53290682084e-15, Final residual = 4.38614485759e-61, No Iterations 37
DILUPBiCGStab:  Solving for ILambda_51_0, Initial residual = 1.4788903811e-15, Final residual = 3.93385169887e-61, No Iterations 37
DILUPBiCGStab:  Solving for ILambda_52_0, Initial residual = 1.508045716e-15, Final residual = 1.40000754835e-61, No Iterations 38
DILUPBiCGStab:  Solving for ILambda_53_0, Initial residual = 1.54954593019e-15, Final residual = 9.2301998065e-61, No Iterations 36
DILUPBiCGStab:  Solving for ILambda_54_0, Initial residual = 1.67389375721e-15, Final residual = 9.45056809695e-62, No Iterations 36
DILUPBiCGStab:  Solving for ILambda_55_0, Initial residual = 1.6093261381e-15, Final residual = 2.63656745225e-61, No Iterations 37
DILUPBiCGStab:  Solving for ILambda_56_0, Initial residual = 2.36956801713e-15, Final residual = 5.28572572229e-61, No Iterations 61
DILUPBiCGStab:  Solving for ILambda_57_0, Initial residual = 2.61516498036e-15, Final residual = 6.92255054282e-61, No Iterations 91
DILUPBiCGStab:  Solving for ILambda_58_0, Initial residual = 2.76563518984e-15, Final residual = 3.35555150003e-61, No Iterations 119
DILUPBiCGStab:  Solving for ILambda_59_0, Initial residual = 3.21357429969e-15, Final residual = 7.47578669988e-61, No Iterations 134
DILUPBiCGStab:  Solving for ILambda_60_0, Initial residual = 3.2540915467e-15, Final residual = 9.1067991765e-61, No Iterations 130
DILUPBiCGStab:  Solving for ILambda_61_0, Initial residual = 2.86672895527e-15, Final residual = 2.22844689774e-61, No Iterations 118
DILUPBiCGStab:  Solving for ILambda_62_0, Initial residual = 2.4084508953e-15, Final residual = 2.86419819851e-61, No Iterations 92
DILUPBiCGStab:  Solving for ILambda_63_0, Initial residual = 2.02244916824e-15, Final residual = 1.62388069789e-62, No Iterations 59
DILUPBiCGStab:  Solving for ILambda_64_0, Initial residual = 1.63799170114e-15, Final residual = 9.34684315364e-61, No Iterations 35
DILUPBiCGStab:  Solving for ILambda_65_0, Initial residual = 1.68697533266e-15, Final residual = 5.7447130907e-61, No Iterations 37
DILUPBiCGStab:  Solving for ILambda_66_0, Initial residual = 1.50698769871e-15, Final residual = 2.70375582431e-61, No Iterations 39
DILUPBiCGStab:  Solving for ILambda_67_0, Initial residual = 1.43753828558e-15, Final residual = 1.99551876347e-61, No Iterations 38
DILUPBiCGStab:  Solving for ILambda_68_0, Initial residual = 1.44886556821e-15, Final residual = 3.70786064882e-61, No Iterations 37
DILUPBiCGStab:  Solving for ILambda_69_0, Initial residual = 1.49166509653e-15, Final residual = 3.69341632421e-61, No Iterations 36
DILUPBiCGStab:  Solving for ILambda_70_0, Initial residual = 2.14746815271e-15, Final residual = 6.83479699405e-62, No Iterations 36
DILUPBiCGStab:  Solving for ILambda_71_0, Initial residual = 2.06061932823e-15, Final residual = 1.53575746921e-61, No Iterations 35
DILUPBiCGStab:  Solving for ILambda_72_0, Initial residual = 1.92455279522e-15, Final residual = 1.98276340131e-61, No Iterations 58
DILUPBiCGStab:  Solving for ILambda_73_0, Initial residual = 2.70131317894e-15, Final residual = 4.6158843716e-61, No Iterations 94
DILUPBiCGStab:  Solving for ILambda_74_0, Initial residual = 2.50903915103e-15, Final residual = 3.62481831252e-61, No Iterations 118
DILUPBiCGStab:  Solving for ILambda_75_0, Initial residual = 3.47486581123e-15, Final residual = 6.151930086e-61, No Iterations 132
DILUPBiCGStab:  Solving for ILambda_76_0, Initial residual = 3.27780616414e-15, Final residual = 9.08535853758e-61, No Iterations 131
DILUPBiCGStab:  Solving for ILambda_77_0, Initial residual = 3.74542360312e-15, Final residual = 4.23133569077e-61, No Iterations 116
DILUPBiCGStab:  Solving for ILambda_78_0, Initial residual = 3.50707147787e-15, Final residual = 3.44120352702e-61, No Iterations 95
DILUPBiCGStab:  Solving for ILambda_79_0, Initial residual = 2.64900637994e-15, Final residual = 9.15719170256e-61, No Iterations 58
DILUPBiCGStab:  Solving for ILambda_80_0, Initial residual = 2.06677738111e-15, Final residual = 4.73094508412e-71, No Iterations 2
DILUPBiCGStab:  Solving for ILambda_81_0, Initial residual = 2.15235289432e-15, Final residual = 2.06717649932e-72, No Iterations 2
DILUPBiCGStab:  Solving for ILambda_82_0, Initial residual = 1.59039558322e-15, Final residual = 5.04637020759e-71, No Iterations 2
DILUPBiCGStab:  Solving for ILambda_83_0, Initial residual = 1.47190236534e-15, Final residual = 1.60539008657e-71, No Iterations 2
DILUPBiCGStab:  Solving for ILambda_84_0, Initial residual = 1.46056050175e-15, Final residual = 1.59045653916e-71, No Iterations 2
DILUPBiCGStab:  Solving for ILambda_85_0, Initial residual = 1.52995571513e-15, Final residual = 1.82735038692e-70, No Iterations 2
DILUPBiCGStab:  Solving for ILambda_86_0, Initial residual = 1.68854548105e-15, Final residual = 7.97559835674e-72, No Iterations 2
DILUPBiCGStab:  Solving for ILambda_87_0, Initial residual = 1.62818383416e-15, Final residual = 3.10910645693e-70, No Iterations 2
DILUPBiCGStab:  Solving for ILambda_88_0, Initial residual = 2.41230022659e-15, Final residual = 7.26217964992e-61, No Iterations 57
DILUPBiCGStab:  Solving for ILambda_89_0, Initial residual = 3.14949646378e-15, Final residual = 3.38017436181e-61, No Iterations 94
DILUPBiCGStab:  Solving for ILambda_90_0, Initial residual = 3.59866683821e-15, Final residual = 7.57461168348e-61, No Iterations 115
DILUPBiCGStab:  Solving for ILambda_91_0, Initial residual = 2.85114803921e-15, Final residual = 4.22400080607e-61, No Iterations 131
DILUPBiCGStab:  Solving for ILambda_92_0, Initial residual = 2.68871593246e-15, Final residual = 6.2475574767e-61, No Iterations 137
DILUPBiCGStab:  Solving for ILambda_93_0, Initial residual = 2.9491562409e-15, Final residual = 4.18888104188e-61, No Iterations 114
DILUPBiCGStab:  Solving for ILambda_94_0, Initial residual = 2.70825025165e-15, Final residual = 9.62850258432e-61, No Iterations 96
DILUPBiCGStab:  Solving for ILambda_95_0, Initial residual = 1.78468842552e-15, Final residual = 4.90173208273e-61, No Iterations 57
DILUPBiCGStab:  Solving for ILambda_96_0, Initial residual = 3.2823523215e-16, Final residual = 2.32802471162e-61, No Iterations 27
DILUPBiCGStab:  Solving for ILambda_97_0, Initial residual = 3.40607293177e-16, Final residual = 1.23922479148e-61, No Iterations 29
DILUPBiCGStab:  Solving for ILambda_98_0, Initial residual = 3.24188546297e-16, Final residual = 3.67347510478e-61, No Iterations 28
DILUPBiCGStab:  Solving for ILambda_99_0, Initial residual = 3.79507553596e-16, Final residual = 4.25686714377e-61, No Iterations 30
DILUPBiCGStab:  Solving for ILambda_100_0, Initial residual = 3.81558614601e-16, Final residual = 3.35711559936e-61, No Iterations 29
DILUPBiCGStab:  Solving for ILambda_101_0, Initial residual = 3.74579915559e-16, Final residual = 9.97994142148e-61, No Iterations 27
DILUPBiCGStab:  Solving for ILambda_102_0, Initial residual = 3.8628623852e-16, Final residual = 5.47964240439e-61, No Iterations 27
DILUPBiCGStab:  Solving for ILambda_103_0, Initial residual = 3.65602123392e-16, Final residual = 3.69830702131e-61, No Iterations 28
DILUPBiCGStab:  Solving for ILambda_104_0, Initial residual = 4.2394636297e-16, Final residual = 2.87403981502e-61, No Iterations 56
DILUPBiCGStab:  Solving for ILambda_105_0, Initial residual = 5.7164800126e-16, Final residual = 9.02805191597e-61, No Iterations 95
DILUPBiCGStab:  Solving for ILambda_106_0, Initial residual = 6.64860324105e-16, Final residual = 5.31213453532e-61, No Iterations 113
DILUPBiCGStab:  Solving for ILambda_107_0, Initial residual = 6.8468519838e-16, Final residual = 7.57691563369e-61, No Iterations 133
DILUPBiCGStab:  Solving for ILambda_108_0, Initial residual = 7.28534627528e-16, Final residual = 9.99170763914e-61, No Iterations 128
DILUPBiCGStab:  Solving for ILambda_109_0, Initial residual = 7.99438278101e-16, Final residual = 8.40909655463e-61, No Iterations 115
DILUPBiCGStab:  Solving for ILambda_110_0, Initial residual = 5.45253209851e-16, Final residual = 5.07573155929e-61, No Iterations 92
DILUPBiCGStab:  Solving for ILambda_111_0, Initial residual = 4.75189286907e-16, Final residual = 7.35028124108e-61, No Iterations 59
DILUPBiCGStab:  Solving for ILambda_112_0, Initial residual = 3.68145555175e-16, Final residual = 9.05910415359e-71, No Iterations 2
DILUPBiCGStab:  Solving for ILambda_113_0, Initial residual = 3.91915680426e-16, Final residual = 1.15374138114e-68, No Iterations 2
DILUPBiCGStab:  Solving for ILambda_114_0, Initial residual = 3.82856984455e-16, Final residual = 7.18448197785e-72, No Iterations 2
DILUPBiCGStab:  Solving for ILambda_115_0, Initial residual = 3.86889118142e-16, Final residual = 8.20147261502e-72, No Iterations 2
DILUPBiCGStab:  Solving for ILambda_116_0, Initial residual = 3.77530296946e-16, Final residual = 9.43182018598e-71, No Iterations 2
DILUPBiCGStab:  Solving for ILambda_117_0, Initial residual = 3.28979970962e-16, Final residual = 2.05831975756e-72, No Iterations 2
DILUPBiCGStab:  Solving for ILambda_118_0, Initial residual = 3.45960543973e-16, Final residual = 6.01146782596e-71, No Iterations 2
DILUPBiCGStab:  Solving for ILambda_119_0, Initial residual = 3.33622056748e-16, Final residual = 1.04584161909e-71, No Iterations 2
DILUPBiCGStab:  Solving for ILambda_120_0, Initial residual = 4.53897152018e-16, Final residual = 2.34809143832e-61, No Iterations 58
DILUPBiCGStab:  Solving for ILambda_121_0, Initial residual = 5.9194363454e-16, Final residual = 2.32283913128e-61, No Iterations 94
DILUPBiCGStab:  Solving for ILambda_122_0, Initial residual = 7.92645953488e-16, Final residual = 8.93350280259e-62, No Iterations 112
DILUPBiCGStab:  Solving for ILambda_123_0, Initial residual = 7.83041022499e-16, Final residual = 4.64082450244e-61, No Iterations 130
DILUPBiCGStab:  Solving for ILambda_124_0, Initial residual = 7.42082743593e-16, Final residual = 2.66487758906e-61, No Iterations 127
DILUPBiCGStab:  Solving for ILambda_125_0, Initial residual = 6.78942001179e-16, Final residual = 9.93633098316e-61, No Iterations 111
DILUPBiCGStab:  Solving for ILambda_126_0, Initial residual = 5.53019500475e-16, Final residual = 4.12182663796e-61, No Iterations 95
DILUPBiCGStab:  Solving for ILambda_127_0, Initial residual = 4.30745981194e-16, Final residual = 9.14933573353e-61, No Iterations 57
min/max(T) = 1000, 1000
ExecutionTime = 3730.33 s  ClockTime = 3731 s

writeObjects writeObjects1.writeObjects write:
    writing object a
    writing object qem
End

