/*---------------------------------------------------------------------------*\
| =========                 |                                                 |
| \\      /  F ield         | OpenFOAM: The Open Source CFD Toolbox           |
|  \\    /   O peration     | Version:  2306                                  |
|   \\  /    A nd           | Website:  www.openfoam.com                      |
|    \\/     M anipulation  |                                                 |
\*---------------------------------------------------------------------------*/
Build  : _fbf00d6b-20230626 OPENFOAM=2306 version=2306
Arch   : "LSB;label=32;scalar=64"
Exec   : fireRADFoam_MaCFP
Date   : Mar 12 2024
Time   : 19:27:59
Host   : pop-os
PID    : 172668
I/O    : uncollated
Case   : /home/rafay/Desktop/Study/Radiative_Heat_Transfer/Local_copy_RHT2324/01_Projects/02_Rafay/Case_1_q1D_SolidAngle/new_case3/th_6-ph_12/tau_0.05/res_1
nProcs : 1
trapFpe: Floating point exception trapping enabled (FOAM_SIGFPE).
fileModificationChecking : Monitoring run-time modified files using timeStampMaster (fileModificationSkew 5, maxFileModificationPolls 20)
allowSystemOperations : Allowing user-supplied system call operations

// * * * * * * * * * * * * * * * * * * * * * * * * * * * * * * * * * * * * * //
Create time

Create mesh for time = 0


PIMPLE: no residual control data found. Calculations will employ 10 corrector loops

Reading thermophysical properties

Selecting thermodynamics package 
{
    type            hePsiThermo;
    mixture         singleStepReactingMixture;
    transport       sutherland;
    thermo          janaf;
    energy          sensibleEnthalpy;
    equationOfState perfectGas;
    specie          specie;
}

Selecting chemistryReader foamChemistryReader
    elements not defined in "/home/rafay/Desktop/Study/Radiative_Heat_Transfer/Local_copy_RHT2324/01_Projects/02_Rafay/Case_1_q1D_SolidAngle/new_case3/th_6-ph_12/tau_0.05/res_1/constant/reactions"
Fuel heat of combustion :47168962.4726
stoichiometric air-fuel ratio :14.6914056505
stoichiometric oxygen-fuel ratio :3.42181919285
Maximum products mass concentrations:
    H2O: 0.0818486943001
    CO2: 0.199950099979
    N2: 0.718201205721
Creating component thermo properties:
    multi-component carrier - 6 species
    no liquid components
    no solid components
Creating field rho


Reading field U

Reading/calculating face flux field phi

Selecting radiationModel fvDOM
Selecting absorptionEmissionModel constantAbsorptionEmission
Selecting scatterModel none
Selecting sootModel none
fvDOM : Allocated 288 rays with average orientation:
	I0 : dAve : 	(0.000387488209079 0.00591192763451 0.0163624617374) : omega : 	0.0175372336349 : d : 	(0.0169275754541 0.25826489366 0.965925826289)
	I1 : dAve : 	(0.00115583459655 0.00581077291359 0.0163624617374) : omega : 	0.0175372336349 : d : 	(0.050493090853 0.253845909725 0.965925826289)
	I2 : dAve : 	(0.00190440433361 0.00561019425706 0.0163624617374) : omega : 	0.0175372336349 : d : 	(0.083194655468 0.245083551895 0.965925826289)
	I3 : dAve : 	(0.00262038918453 0.00531362362136 0.0163624617374) : omega : 	0.0175372336349 : d : 	(0.114472736462 0.232127746542 0.965925826289)
	I4 : dAve : 	(0.00329153844998 0.00492613541228 0.0163624617374) : omega : 	0.0175372336349 : d : 	(0.143792157198 0.215200171088 0.965925826289)
	I5 : dAve : 	(0.00390636857998 0.00445435966052 0.0163624617374) : omega : 	0.0175372336349 : d : 	(0.170651254257 0.194590461042 0.965925826289)
	I6 : dAve : 	(0.00445435966052 0.00390636857998 0.0163624617374) : omega : 	0.0175372336349 : d : 	(0.194590461042 0.170651254257 0.965925826289)
	I7 : dAve : 	(0.00492613541228 0.00329153844998 0.0163624617374) : omega : 	0.0175372336349 : d : 	(0.215200171088 0.143792157198 0.965925826289)
	I8 : dAve : 	(0.00531362362136 0.00262038918453 0.0163624617374) : omega : 	0.0175372336349 : d : 	(0.232127746542 0.114472736462 0.965925826289)
	I9 : dAve : 	(0.00561019425706 0.00190440433361 0.0163624617374) : omega : 	0.0175372336349 : d : 	(0.245083551895 0.083194655468 0.965925826289)
	I10 : dAve : 	(0.00581077291359 0.00115583459655 0.0163624617374) : omega : 	0.0175372336349 : d : 	(0.253845909725 0.050493090853 0.965925826289)
	I11 : dAve : 	(0.00591192763451 0.000387488209079 0.0163624617374) : omega : 	0.0175372336349 : d : 	(0.25826489366 0.0169275754541 0.965925826289)
	I12 : dAve : 	(0.00591192763451 -0.000387488209079 0.0163624617374) : omega : 	0.0175372336349 : d : 	(0.25826489366 -0.0169275754541 0.965925826289)
	I13 : dAve : 	(0.00581077291359 -0.00115583459655 0.0163624617374) : omega : 	0.0175372336349 : d : 	(0.253845909725 -0.050493090853 0.965925826289)
	I14 : dAve : 	(0.00561019425706 -0.00190440433361 0.0163624617374) : omega : 	0.0175372336349 : d : 	(0.245083551895 -0.083194655468 0.965925826289)
	I15 : dAve : 	(0.00531362362136 -0.00262038918453 0.0163624617374) : omega : 	0.0175372336349 : d : 	(0.232127746542 -0.114472736462 0.965925826289)
	I16 : dAve : 	(0.00492613541228 -0.00329153844998 0.0163624617374) : omega : 	0.0175372336349 : d : 	(0.215200171088 -0.143792157198 0.965925826289)
	I17 : dAve : 	(0.00445435966052 -0.00390636857998 0.0163624617374) : omega : 	0.0175372336349 : d : 	(0.194590461042 -0.170651254257 0.965925826289)
	I18 : dAve : 	(0.00390636857998 -0.00445435966052 0.0163624617374) : omega : 	0.0175372336349 : d : 	(0.170651254257 -0.194590461042 0.965925826289)
	I19 : dAve : 	(0.00329153844998 -0.00492613541228 0.0163624617374) : omega : 	0.0175372336349 : d : 	(0.143792157198 -0.215200171088 0.965925826289)
	I20 : dAve : 	(0.00262038918453 -0.00531362362136 0.0163624617374) : omega : 	0.0175372336349 : d : 	(0.114472736462 -0.232127746542 0.965925826289)
	I21 : dAve : 	(0.00190440433361 -0.00561019425706 0.0163624617374) : omega : 	0.0175372336349 : d : 	(0.083194655468 -0.245083551895 0.965925826289)
	I22 : dAve : 	(0.00115583459655 -0.00581077291359 0.0163624617374) : omega : 	0.0175372336349 : d : 	(0.050493090853 -0.253845909725 0.965925826289)
	I23 : dAve : 	(0.000387488209079 -0.00591192763451 0.0163624617374) : omega : 	0.0175372336349 : d : 	(0.0169275754541 -0.25826489366 0.965925826289)
	I24 : dAve : 	(-0.000387488209079 -0.00591192763451 0.0163624617374) : omega : 	0.0175372336349 : d : 	(-0.0169275754541 -0.25826489366 0.965925826289)
	I25 : dAve : 	(-0.00115583459655 -0.00581077291359 0.0163624617374) : omega : 	0.0175372336349 : d : 	(-0.050493090853 -0.253845909725 0.965925826289)
	I26 : dAve : 	(-0.00190440433361 -0.00561019425706 0.0163624617374) : omega : 	0.0175372336349 : d : 	(-0.083194655468 -0.245083551895 0.965925826289)
	I27 : dAve : 	(-0.00262038918453 -0.00531362362136 0.0163624617374) : omega : 	0.0175372336349 : d : 	(-0.114472736462 -0.232127746542 0.965925826289)
	I28 : dAve : 	(-0.00329153844998 -0.00492613541228 0.0163624617374) : omega : 	0.0175372336349 : d : 	(-0.143792157198 -0.215200171088 0.965925826289)
	I29 : dAve : 	(-0.00390636857998 -0.00445435966052 0.0163624617374) : omega : 	0.0175372336349 : d : 	(-0.170651254257 -0.194590461042 0.965925826289)
	I30 : dAve : 	(-0.00445435966052 -0.00390636857998 0.0163624617374) : omega : 	0.0175372336349 : d : 	(-0.194590461042 -0.170651254257 0.965925826289)
	I31 : dAve : 	(-0.00492613541228 -0.00329153844998 0.0163624617374) : omega : 	0.0175372336349 : d : 	(-0.215200171088 -0.143792157198 0.965925826289)
	I32 : dAve : 	(-0.00531362362136 -0.00262038918453 0.0163624617374) : omega : 	0.0175372336349 : d : 	(-0.232127746542 -0.114472736462 0.965925826289)
	I33 : dAve : 	(-0.00561019425706 -0.00190440433361 0.0163624617374) : omega : 	0.0175372336349 : d : 	(-0.245083551895 -0.083194655468 0.965925826289)
	I34 : dAve : 	(-0.00581077291359 -0.00115583459655 0.0163624617374) : omega : 	0.0175372336349 : d : 	(-0.253845909725 -0.050493090853 0.965925826289)
	I35 : dAve : 	(-0.00591192763451 -0.000387488209079 0.0163624617374) : omega : 	0.0175372336349 : d : 	(-0.25826489366 -0.0169275754541 0.965925826289)
	I36 : dAve : 	(-0.00591192763451 0.000387488209079 0.0163624617374) : omega : 	0.0175372336349 : d : 	(-0.25826489366 0.0169275754541 0.965925826289)
	I37 : dAve : 	(-0.00581077291359 0.00115583459655 0.0163624617374) : omega : 	0.0175372336349 : d : 	(-0.253845909725 0.050493090853 0.965925826289)
	I38 : dAve : 	(-0.00561019425706 0.00190440433361 0.0163624617374) : omega : 	0.0175372336349 : d : 	(-0.245083551895 0.083194655468 0.965925826289)
	I39 : dAve : 	(-0.00531362362136 0.00262038918453 0.0163624617374) : omega : 	0.0175372336349 : d : 	(-0.232127746542 0.114472736462 0.965925826289)
	I40 : dAve : 	(-0.00492613541228 0.00329153844998 0.0163624617374) : omega : 	0.0175372336349 : d : 	(-0.215200171088 0.143792157198 0.965925826289)
	I41 : dAve : 	(-0.00445435966052 0.00390636857998 0.0163624617374) : omega : 	0.0175372336349 : d : 	(-0.194590461042 0.170651254257 0.965925826289)
	I42 : dAve : 	(-0.00390636857998 0.00445435966052 0.0163624617374) : omega : 	0.0175372336349 : d : 	(-0.170651254257 0.194590461042 0.965925826289)
	I43 : dAve : 	(-0.00329153844998 0.00492613541228 0.0163624617374) : omega : 	0.0175372336349 : d : 	(-0.143792157198 0.215200171088 0.965925826289)
	I44 : dAve : 	(-0.00262038918453 0.00531362362136 0.0163624617374) : omega : 	0.0175372336349 : d : 	(-0.114472736462 0.232127746542 0.965925826289)
	I45 : dAve : 	(-0.00190440433361 0.00561019425706 0.0163624617374) : omega : 	0.0175372336349 : d : 	(-0.083194655468 0.245083551895 0.965925826289)
	I46 : dAve : 	(-0.00115583459655 0.00581077291359 0.0163624617374) : omega : 	0.0175372336349 : d : 	(-0.050493090853 0.253845909725 0.965925826289)
	I47 : dAve : 	(-0.000387488209079 0.00591192763451 0.0163624617374) : omega : 	0.0175372336349 : d : 	(-0.0169275754541 0.25826489366 0.965925826289)
	I48 : dAve : 	(0.00223973005487 0.034171677215 0.0327249234749) : omega : 	0.0479126133149 : d : 	(0.0462469961895 0.70559281129 0.707106781187)
	I49 : dAve : 	(0.00668086776241 0.0335869903436 0.0327249234749) : omega : 	0.0479126133149 : d : 	(0.137949689641 0.693519922661 0.707106781187)
	I50 : dAve : 	(0.0110076939702 0.0324276207555 0.0327249234749) : omega : 	0.0479126133149 : d : 	(0.227292025657 0.669580715876 0.707106781187)
	I51 : dAve : 	(0.0151461754823 0.0307134055855 0.0327249234749) : omega : 	0.0479126133149 : d : 	(0.312745332096 0.634184797399 0.707106781187)
	I52 : dAve : 	(0.0190255017326 0.0284736755306 0.0327249234749) : omega : 	0.0479126133149 : d : 	(0.392847479194 0.58793780121 0.707106781187)
	I53 : dAve : 	(0.0225792963734 0.025746752993 0.0327249234749) : omega : 	0.0479126133149 : d : 	(0.466227897004 0.531631026234 0.707106781187)
	I54 : dAve : 	(0.025746752993 0.0225792963734 0.0327249234749) : omega : 	0.0479126133149 : d : 	(0.531631026234 0.466227897004 0.707106781187)
	I55 : dAve : 	(0.0284736755306 0.0190255017326 0.0327249234749) : omega : 	0.0479126133149 : d : 	(0.58793780121 0.392847479194 0.707106781187)
	I56 : dAve : 	(0.0307134055855 0.0151461754823 0.0327249234749) : omega : 	0.0479126133149 : d : 	(0.634184797399 0.312745332096 0.707106781187)
	I57 : dAve : 	(0.0324276207555 0.0110076939702 0.0327249234749) : omega : 	0.0479126133149 : d : 	(0.669580715876 0.227292025657 0.707106781187)
	I58 : dAve : 	(0.0335869903436 0.00668086776241 0.0327249234749) : omega : 	0.0479126133149 : d : 	(0.693519922661 0.137949689641 0.707106781187)
	I59 : dAve : 	(0.034171677215 0.00223973005487 0.0327249234749) : omega : 	0.0479126133149 : d : 	(0.70559281129 0.0462469961895 0.707106781187)
	I60 : dAve : 	(0.034171677215 -0.00223973005487 0.0327249234749) : omega : 	0.0479126133149 : d : 	(0.70559281129 -0.0462469961895 0.707106781187)
	I61 : dAve : 	(0.0335869903436 -0.00668086776241 0.0327249234749) : omega : 	0.0479126133149 : d : 	(0.693519922661 -0.137949689641 0.707106781187)
	I62 : dAve : 	(0.0324276207555 -0.0110076939702 0.0327249234749) : omega : 	0.0479126133149 : d : 	(0.669580715876 -0.227292025657 0.707106781187)
	I63 : dAve : 	(0.0307134055855 -0.0151461754823 0.0327249234749) : omega : 	0.0479126133149 : d : 	(0.634184797399 -0.312745332096 0.707106781187)
	I64 : dAve : 	(0.0284736755306 -0.0190255017326 0.0327249234749) : omega : 	0.0479126133149 : d : 	(0.58793780121 -0.392847479194 0.707106781187)
	I65 : dAve : 	(0.025746752993 -0.0225792963734 0.0327249234749) : omega : 	0.0479126133149 : d : 	(0.531631026234 -0.466227897004 0.707106781187)
	I66 : dAve : 	(0.0225792963734 -0.025746752993 0.0327249234749) : omega : 	0.0479126133149 : d : 	(0.466227897004 -0.531631026234 0.707106781187)
	I67 : dAve : 	(0.0190255017326 -0.0284736755306 0.0327249234749) : omega : 	0.0479126133149 : d : 	(0.392847479194 -0.58793780121 0.707106781187)
	I68 : dAve : 	(0.0151461754823 -0.0307134055855 0.0327249234749) : omega : 	0.0479126133149 : d : 	(0.312745332096 -0.634184797399 0.707106781187)
	I69 : dAve : 	(0.0110076939702 -0.0324276207555 0.0327249234749) : omega : 	0.0479126133149 : d : 	(0.227292025657 -0.669580715876 0.707106781187)
	I70 : dAve : 	(0.00668086776241 -0.0335869903436 0.0327249234749) : omega : 	0.0479126133149 : d : 	(0.137949689641 -0.693519922661 0.707106781187)
	I71 : dAve : 	(0.00223973005487 -0.034171677215 0.0327249234749) : omega : 	0.0479126133149 : d : 	(0.0462469961895 -0.70559281129 0.707106781187)
	I72 : dAve : 	(-0.00223973005487 -0.034171677215 0.0327249234749) : omega : 	0.0479126133149 : d : 	(-0.0462469961895 -0.70559281129 0.707106781187)
	I73 : dAve : 	(-0.00668086776241 -0.0335869903436 0.0327249234749) : omega : 	0.0479126133149 : d : 	(-0.137949689641 -0.693519922661 0.707106781187)
	I74 : dAve : 	(-0.0110076939702 -0.0324276207555 0.0327249234749) : omega : 	0.0479126133149 : d : 	(-0.227292025657 -0.669580715876 0.707106781187)
	I75 : dAve : 	(-0.0151461754823 -0.0307134055855 0.0327249234749) : omega : 	0.0479126133149 : d : 	(-0.312745332096 -0.634184797399 0.707106781187)
	I76 : dAve : 	(-0.0190255017326 -0.0284736755306 0.0327249234749) : omega : 	0.0479126133149 : d : 	(-0.392847479194 -0.58793780121 0.707106781187)
	I77 : dAve : 	(-0.0225792963734 -0.025746752993 0.0327249234749) : omega : 	0.0479126133149 : d : 	(-0.466227897004 -0.531631026234 0.707106781187)
	I78 : dAve : 	(-0.025746752993 -0.0225792963734 0.0327249234749) : omega : 	0.0479126133149 : d : 	(-0.531631026234 -0.466227897004 0.707106781187)
	I79 : dAve : 	(-0.0284736755306 -0.0190255017326 0.0327249234749) : omega : 	0.0479126133149 : d : 	(-0.58793780121 -0.392847479194 0.707106781187)
	I80 : dAve : 	(-0.0307134055855 -0.0151461754823 0.0327249234749) : omega : 	0.0479126133149 : d : 	(-0.634184797399 -0.312745332096 0.707106781187)
	I81 : dAve : 	(-0.0324276207555 -0.0110076939702 0.0327249234749) : omega : 	0.0479126133149 : d : 	(-0.669580715876 -0.227292025657 0.707106781187)
	I82 : dAve : 	(-0.0335869903436 -0.00668086776241 0.0327249234749) : omega : 	0.0479126133149 : d : 	(-0.693519922661 -0.137949689641 0.707106781187)
	I83 : dAve : 	(-0.034171677215 -0.00223973005487 0.0327249234749) : omega : 	0.0479126133149 : d : 	(-0.70559281129 -0.0462469961895 0.707106781187)
	I84 : dAve : 	(-0.034171677215 0.00223973005487 0.0327249234749) : omega : 	0.0479126133149 : d : 	(-0.70559281129 0.0462469961895 0.707106781187)
	I85 : dAve : 	(-0.0335869903436 0.00668086776241 0.0327249234749) : omega : 	0.0479126133149 : d : 	(-0.693519922661 0.137949689641 0.707106781187)
	I86 : dAve : 	(-0.0324276207555 0.0110076939702 0.0327249234749) : omega : 	0.0479126133149 : d : 	(-0.669580715876 0.227292025657 0.707106781187)
	I87 : dAve : 	(-0.0307134055855 0.0151461754823 0.0327249234749) : omega : 	0.0479126133149 : d : 	(-0.634184797399 0.312745332096 0.707106781187)
	I88 : dAve : 	(-0.0284736755306 0.0190255017326 0.0327249234749) : omega : 	0.0479126133149 : d : 	(-0.58793780121 0.392847479194 0.707106781187)
	I89 : dAve : 	(-0.025746752993 0.0225792963734 0.0327249234749) : omega : 	0.0479126133149 : d : 	(-0.531631026234 0.466227897004 0.707106781187)
	I90 : dAve : 	(-0.0225792963734 0.025746752993 0.0327249234749) : omega : 	0.0479126133149 : d : 	(-0.466227897004 0.531631026234 0.707106781187)
	I91 : dAve : 	(-0.0190255017326 0.0284736755306 0.0327249234749) : omega : 	0.0479126133149 : d : 	(-0.392847479194 0.58793780121 0.707106781187)
	I92 : dAve : 	(-0.0151461754823 0.0307134055855 0.0327249234749) : omega : 	0.0479126133149 : d : 	(-0.312745332096 0.634184797399 0.707106781187)
	I93 : dAve : 	(-0.0110076939702 0.0324276207555 0.0327249234749) : omega : 	0.0479126133149 : d : 	(-0.227292025657 0.669580715876 0.707106781187)
	I94 : dAve : 	(-0.00668086776241 0.0335869903436 0.0327249234749) : omega : 	0.0479126133149 : d : 	(-0.137949689641 0.693519922661 0.707106781187)
	I95 : dAve : 	(-0.00223973005487 0.034171677215 0.0327249234749) : omega : 	0.0479126133149 : d : 	(-0.0462469961895 0.70559281129 0.707106781187)
	I96 : dAve : 	(0.00409197190067 0.0624314267954 0.0163624617374) : omega : 	0.0654498469498 : d : 	(0.0631745716435 0.963857704949 0.258819045103)
	I97 : dAve : 	(0.0122059009283 0.0613632077737 0.0163624617374) : omega : 	0.0654498469498 : d : 	(0.188442780494 0.947365832386 0.258819045103)
	I98 : dAve : 	(0.0201109836069 0.0592450472539 0.0163624617374) : omega : 	0.0654498469498 : d : 	(0.310486681125 0.914664267771 0.258819045103)
	I99 : dAve : 	(0.0276719617802 0.0561131875497 0.0163624617374) : omega : 	0.0654498469498 : d : 	(0.427218068558 0.866312543941 0.258819045103)
	I100 : dAve : 	(0.0347594650153 0.052021215649 0.0163624617374) : omega : 	0.0654498469498 : d : 	(0.536639636391 0.803137972298 0.258819045103)
	I101 : dAve : 	(0.0412522241668 0.0470391463256 0.0163624617374) : omega : 	0.0654498469498 : d : 	(0.636879151261 0.726221487276 0.258819045103)
	I102 : dAve : 	(0.0470391463256 0.0412522241668 0.0163624617374) : omega : 	0.0654498469498 : d : 	(0.726221487276 0.636879151261 0.258819045103)
	I103 : dAve : 	(0.052021215649 0.0347594650153 0.0163624617374) : omega : 	0.0654498469498 : d : 	(0.803137972298 0.536639636391 0.258819045103)
	I104 : dAve : 	(0.0561131875497 0.0276719617802 0.0163624617374) : omega : 	0.0654498469498 : d : 	(0.866312543941 0.427218068558 0.258819045103)
	I105 : dAve : 	(0.0592450472539 0.0201109836069 0.0163624617374) : omega : 	0.0654498469498 : d : 	(0.914664267771 0.310486681125 0.258819045103)
	I106 : dAve : 	(0.0613632077737 0.0122059009283 0.0163624617374) : omega : 	0.0654498469498 : d : 	(0.947365832386 0.188442780494 0.258819045103)
	I107 : dAve : 	(0.0624314267954 0.00409197190067 0.0163624617374) : omega : 	0.0654498469498 : d : 	(0.963857704949 0.0631745716435 0.258819045103)
	I108 : dAve : 	(0.0624314267954 -0.00409197190067 0.0163624617374) : omega : 	0.0654498469498 : d : 	(0.963857704949 -0.0631745716435 0.258819045103)
	I109 : dAve : 	(0.0613632077737 -0.0122059009283 0.0163624617374) : omega : 	0.0654498469498 : d : 	(0.947365832386 -0.188442780494 0.258819045103)
	I110 : dAve : 	(0.0592450472539 -0.0201109836069 0.0163624617374) : omega : 	0.0654498469498 : d : 	(0.914664267771 -0.310486681125 0.258819045103)
	I111 : dAve : 	(0.0561131875497 -0.0276719617802 0.0163624617374) : omega : 	0.0654498469498 : d : 	(0.866312543941 -0.427218068558 0.258819045103)
	I112 : dAve : 	(0.052021215649 -0.0347594650153 0.0163624617374) : omega : 	0.0654498469498 : d : 	(0.803137972298 -0.536639636391 0.258819045103)
	I113 : dAve : 	(0.0470391463256 -0.0412522241668 0.0163624617374) : omega : 	0.0654498469498 : d : 	(0.726221487276 -0.636879151261 0.258819045103)
	I114 : dAve : 	(0.0412522241668 -0.0470391463256 0.0163624617374) : omega : 	0.0654498469498 : d : 	(0.636879151261 -0.726221487276 0.258819045103)
	I115 : dAve : 	(0.0347594650153 -0.052021215649 0.0163624617374) : omega : 	0.0654498469498 : d : 	(0.536639636391 -0.803137972298 0.258819045103)
	I116 : dAve : 	(0.0276719617802 -0.0561131875497 0.0163624617374) : omega : 	0.0654498469498 : d : 	(0.427218068558 -0.866312543941 0.258819045103)
	I117 : dAve : 	(0.0201109836069 -0.0592450472539 0.0163624617374) : omega : 	0.0654498469498 : d : 	(0.310486681125 -0.914664267771 0.258819045103)
	I118 : dAve : 	(0.0122059009283 -0.0613632077737 0.0163624617374) : omega : 	0.0654498469498 : d : 	(0.188442780494 -0.947365832386 0.258819045103)
	I119 : dAve : 	(0.00409197190067 -0.0624314267954 0.0163624617374) : omega : 	0.0654498469498 : d : 	(0.0631745716435 -0.963857704949 0.258819045103)
	I120 : dAve : 	(-0.00409197190067 -0.0624314267954 0.0163624617374) : omega : 	0.0654498469498 : d : 	(-0.0631745716435 -0.963857704949 0.258819045103)
	I121 : dAve : 	(-0.0122059009283 -0.0613632077737 0.0163624617374) : omega : 	0.0654498469498 : d : 	(-0.188442780494 -0.947365832386 0.258819045103)
	I122 : dAve : 	(-0.0201109836069 -0.0592450472539 0.0163624617374) : omega : 	0.0654498469498 : d : 	(-0.310486681125 -0.914664267771 0.258819045103)
	I123 : dAve : 	(-0.0276719617802 -0.0561131875497 0.0163624617374) : omega : 	0.0654498469498 : d : 	(-0.427218068558 -0.866312543941 0.258819045103)
	I124 : dAve : 	(-0.0347594650153 -0.052021215649 0.0163624617374) : omega : 	0.0654498469498 : d : 	(-0.536639636391 -0.803137972298 0.258819045103)
	I125 : dAve : 	(-0.0412522241668 -0.0470391463256 0.0163624617374) : omega : 	0.0654498469498 : d : 	(-0.636879151261 -0.726221487276 0.258819045103)
	I126 : dAve : 	(-0.0470391463256 -0.0412522241668 0.0163624617374) : omega : 	0.0654498469498 : d : 	(-0.726221487276 -0.636879151261 0.258819045103)
	I127 : dAve : 	(-0.052021215649 -0.0347594650153 0.0163624617374) : omega : 	0.0654498469498 : d : 	(-0.803137972298 -0.536639636391 0.258819045103)
	I128 : dAve : 	(-0.0561131875497 -0.0276719617802 0.0163624617374) : omega : 	0.0654498469498 : d : 	(-0.866312543941 -0.427218068558 0.258819045103)
	I129 : dAve : 	(-0.0592450472539 -0.0201109836069 0.0163624617374) : omega : 	0.0654498469498 : d : 	(-0.914664267771 -0.310486681125 0.258819045103)
	I130 : dAve : 	(-0.0613632077737 -0.0122059009283 0.0163624617374) : omega : 	0.0654498469498 : d : 	(-0.947365832386 -0.188442780494 0.258819045103)
	I131 : dAve : 	(-0.0624314267954 -0.00409197190067 0.0163624617374) : omega : 	0.0654498469498 : d : 	(-0.963857704949 -0.0631745716435 0.258819045103)
	I132 : dAve : 	(-0.0624314267954 0.00409197190067 0.0163624617374) : omega : 	0.0654498469498 : d : 	(-0.963857704949 0.0631745716435 0.258819045103)
	I133 : dAve : 	(-0.0613632077737 0.0122059009283 0.0163624617374) : omega : 	0.0654498469498 : d : 	(-0.947365832386 0.188442780494 0.258819045103)
	I134 : dAve : 	(-0.0592450472539 0.0201109836069 0.0163624617374) : omega : 	0.0654498469498 : d : 	(-0.914664267771 0.310486681125 0.258819045103)
	I135 : dAve : 	(-0.0561131875497 0.0276719617802 0.0163624617374) : omega : 	0.0654498469498 : d : 	(-0.866312543941 0.427218068558 0.258819045103)
	I136 : dAve : 	(-0.052021215649 0.0347594650153 0.0163624617374) : omega : 	0.0654498469498 : d : 	(-0.803137972298 0.536639636391 0.258819045103)
	I137 : dAve : 	(-0.0470391463256 0.0412522241668 0.0163624617374) : omega : 	0.0654498469498 : d : 	(-0.726221487276 0.636879151261 0.258819045103)
	I138 : dAve : 	(-0.0412522241668 0.0470391463256 0.0163624617374) : omega : 	0.0654498469498 : d : 	(-0.636879151261 0.726221487276 0.258819045103)
	I139 : dAve : 	(-0.0347594650153 0.052021215649 0.0163624617374) : omega : 	0.0654498469498 : d : 	(-0.536639636391 0.803137972298 0.258819045103)
	I140 : dAve : 	(-0.0276719617802 0.0561131875497 0.0163624617374) : omega : 	0.0654498469498 : d : 	(-0.427218068558 0.866312543941 0.258819045103)
	I141 : dAve : 	(-0.0201109836069 0.0592450472539 0.0163624617374) : omega : 	0.0654498469498 : d : 	(-0.310486681125 0.914664267771 0.258819045103)
	I142 : dAve : 	(-0.0122059009283 0.0613632077737 0.0163624617374) : omega : 	0.0654498469498 : d : 	(-0.188442780494 0.947365832386 0.258819045103)
	I143 : dAve : 	(-0.00409197190067 0.0624314267954 0.0163624617374) : omega : 	0.0654498469498 : d : 	(-0.0631745716435 0.963857704949 0.258819045103)
	I144 : dAve : 	(0.00409197190067 0.0624314267954 -0.0163624617374) : omega : 	0.0654498469498 : d : 	(0.0631745716435 0.963857704949 -0.258819045103)
	I145 : dAve : 	(0.0122059009283 0.0613632077737 -0.0163624617374) : omega : 	0.0654498469498 : d : 	(0.188442780494 0.947365832386 -0.258819045103)
	I146 : dAve : 	(0.0201109836069 0.0592450472539 -0.0163624617374) : omega : 	0.0654498469498 : d : 	(0.310486681125 0.914664267771 -0.258819045103)
	I147 : dAve : 	(0.0276719617802 0.0561131875497 -0.0163624617374) : omega : 	0.0654498469498 : d : 	(0.427218068558 0.866312543941 -0.258819045103)
	I148 : dAve : 	(0.0347594650153 0.052021215649 -0.0163624617374) : omega : 	0.0654498469498 : d : 	(0.536639636391 0.803137972298 -0.258819045103)
	I149 : dAve : 	(0.0412522241668 0.0470391463256 -0.0163624617374) : omega : 	0.0654498469498 : d : 	(0.636879151261 0.726221487276 -0.258819045103)
	I150 : dAve : 	(0.0470391463256 0.0412522241668 -0.0163624617374) : omega : 	0.0654498469498 : d : 	(0.726221487276 0.636879151261 -0.258819045103)
	I151 : dAve : 	(0.052021215649 0.0347594650153 -0.0163624617374) : omega : 	0.0654498469498 : d : 	(0.803137972298 0.536639636391 -0.258819045103)
	I152 : dAve : 	(0.0561131875497 0.0276719617802 -0.0163624617374) : omega : 	0.0654498469498 : d : 	(0.866312543941 0.427218068558 -0.258819045103)
	I153 : dAve : 	(0.0592450472539 0.0201109836069 -0.0163624617374) : omega : 	0.0654498469498 : d : 	(0.914664267771 0.310486681125 -0.258819045103)
	I154 : dAve : 	(0.0613632077737 0.0122059009283 -0.0163624617374) : omega : 	0.0654498469498 : d : 	(0.947365832386 0.188442780494 -0.258819045103)
	I155 : dAve : 	(0.0624314267954 0.00409197190067 -0.0163624617374) : omega : 	0.0654498469498 : d : 	(0.963857704949 0.0631745716435 -0.258819045103)
	I156 : dAve : 	(0.0624314267954 -0.00409197190067 -0.0163624617374) : omega : 	0.0654498469498 : d : 	(0.963857704949 -0.0631745716435 -0.258819045103)
	I157 : dAve : 	(0.0613632077737 -0.0122059009283 -0.0163624617374) : omega : 	0.0654498469498 : d : 	(0.947365832386 -0.188442780494 -0.258819045103)
	I158 : dAve : 	(0.0592450472539 -0.0201109836069 -0.0163624617374) : omega : 	0.0654498469498 : d : 	(0.914664267771 -0.310486681125 -0.258819045103)
	I159 : dAve : 	(0.0561131875497 -0.0276719617802 -0.0163624617374) : omega : 	0.0654498469498 : d : 	(0.866312543941 -0.427218068558 -0.258819045103)
	I160 : dAve : 	(0.052021215649 -0.0347594650153 -0.0163624617374) : omega : 	0.0654498469498 : d : 	(0.803137972298 -0.536639636391 -0.258819045103)
	I161 : dAve : 	(0.0470391463256 -0.0412522241668 -0.0163624617374) : omega : 	0.0654498469498 : d : 	(0.726221487276 -0.636879151261 -0.258819045103)
	I162 : dAve : 	(0.0412522241668 -0.0470391463256 -0.0163624617374) : omega : 	0.0654498469498 : d : 	(0.636879151261 -0.726221487276 -0.258819045103)
	I163 : dAve : 	(0.0347594650153 -0.052021215649 -0.0163624617374) : omega : 	0.0654498469498 : d : 	(0.536639636391 -0.803137972298 -0.258819045103)
	I164 : dAve : 	(0.0276719617802 -0.0561131875497 -0.0163624617374) : omega : 	0.0654498469498 : d : 	(0.427218068558 -0.866312543941 -0.258819045103)
	I165 : dAve : 	(0.0201109836069 -0.0592450472539 -0.0163624617374) : omega : 	0.0654498469498 : d : 	(0.310486681125 -0.914664267771 -0.258819045103)
	I166 : dAve : 	(0.0122059009283 -0.0613632077737 -0.0163624617374) : omega : 	0.0654498469498 : d : 	(0.188442780494 -0.947365832386 -0.258819045103)
	I167 : dAve : 	(0.00409197190067 -0.0624314267954 -0.0163624617374) : omega : 	0.0654498469498 : d : 	(0.0631745716435 -0.963857704949 -0.258819045103)
	I168 : dAve : 	(-0.00409197190067 -0.0624314267954 -0.0163624617374) : omega : 	0.0654498469498 : d : 	(-0.0631745716435 -0.963857704949 -0.258819045103)
	I169 : dAve : 	(-0.0122059009283 -0.0613632077737 -0.0163624617374) : omega : 	0.0654498469498 : d : 	(-0.188442780494 -0.947365832386 -0.258819045103)
	I170 : dAve : 	(-0.0201109836069 -0.0592450472539 -0.0163624617374) : omega : 	0.0654498469498 : d : 	(-0.310486681125 -0.914664267771 -0.258819045103)
	I171 : dAve : 	(-0.0276719617802 -0.0561131875497 -0.0163624617374) : omega : 	0.0654498469498 : d : 	(-0.427218068558 -0.866312543941 -0.258819045103)
	I172 : dAve : 	(-0.0347594650153 -0.052021215649 -0.0163624617374) : omega : 	0.0654498469498 : d : 	(-0.536639636391 -0.803137972298 -0.258819045103)
	I173 : dAve : 	(-0.0412522241668 -0.0470391463256 -0.0163624617374) : omega : 	0.0654498469498 : d : 	(-0.636879151261 -0.726221487276 -0.258819045103)
	I174 : dAve : 	(-0.0470391463256 -0.0412522241668 -0.0163624617374) : omega : 	0.0654498469498 : d : 	(-0.726221487276 -0.636879151261 -0.258819045103)
	I175 : dAve : 	(-0.052021215649 -0.0347594650153 -0.0163624617374) : omega : 	0.0654498469498 : d : 	(-0.803137972298 -0.536639636391 -0.258819045103)
	I176 : dAve : 	(-0.0561131875497 -0.0276719617802 -0.0163624617374) : omega : 	0.0654498469498 : d : 	(-0.866312543941 -0.427218068558 -0.258819045103)
	I177 : dAve : 	(-0.0592450472539 -0.0201109836069 -0.0163624617374) : omega : 	0.0654498469498 : d : 	(-0.914664267771 -0.310486681125 -0.258819045103)
	I178 : dAve : 	(-0.0613632077737 -0.0122059009283 -0.0163624617374) : omega : 	0.0654498469498 : d : 	(-0.947365832386 -0.188442780494 -0.258819045103)
	I179 : dAve : 	(-0.0624314267954 -0.00409197190067 -0.0163624617374) : omega : 	0.0654498469498 : d : 	(-0.963857704949 -0.0631745716435 -0.258819045103)
	I180 : dAve : 	(-0.0624314267954 0.00409197190067 -0.0163624617374) : omega : 	0.0654498469498 : d : 	(-0.963857704949 0.0631745716435 -0.258819045103)
	I181 : dAve : 	(-0.0613632077737 0.0122059009283 -0.0163624617374) : omega : 	0.0654498469498 : d : 	(-0.947365832386 0.188442780494 -0.258819045103)
	I182 : dAve : 	(-0.0592450472539 0.0201109836069 -0.0163624617374) : omega : 	0.0654498469498 : d : 	(-0.914664267771 0.310486681125 -0.258819045103)
	I183 : dAve : 	(-0.0561131875497 0.0276719617802 -0.0163624617374) : omega : 	0.0654498469498 : d : 	(-0.866312543941 0.427218068558 -0.258819045103)
	I184 : dAve : 	(-0.052021215649 0.0347594650153 -0.0163624617374) : omega : 	0.0654498469498 : d : 	(-0.803137972298 0.536639636391 -0.258819045103)
	I185 : dAve : 	(-0.0470391463256 0.0412522241668 -0.0163624617374) : omega : 	0.0654498469498 : d : 	(-0.726221487276 0.636879151261 -0.258819045103)
	I186 : dAve : 	(-0.0412522241668 0.0470391463256 -0.0163624617374) : omega : 	0.0654498469498 : d : 	(-0.636879151261 0.726221487276 -0.258819045103)
	I187 : dAve : 	(-0.0347594650153 0.052021215649 -0.0163624617374) : omega : 	0.0654498469498 : d : 	(-0.536639636391 0.803137972298 -0.258819045103)
	I188 : dAve : 	(-0.0276719617802 0.0561131875497 -0.0163624617374) : omega : 	0.0654498469498 : d : 	(-0.427218068558 0.866312543941 -0.258819045103)
	I189 : dAve : 	(-0.0201109836069 0.0592450472539 -0.0163624617374) : omega : 	0.0654498469498 : d : 	(-0.310486681125 0.914664267771 -0.258819045103)
	I190 : dAve : 	(-0.0122059009283 0.0613632077737 -0.0163624617374) : omega : 	0.0654498469498 : d : 	(-0.188442780494 0.947365832386 -0.258819045103)
	I191 : dAve : 	(-0.00409197190067 0.0624314267954 -0.0163624617374) : omega : 	0.0654498469498 : d : 	(-0.0631745716435 0.963857704949 -0.258819045103)
	I192 : dAve : 	(0.00223973005487 0.034171677215 -0.0327249234749) : omega : 	0.0479126133149 : d : 	(0.0462469961895 0.70559281129 -0.707106781187)
	I193 : dAve : 	(0.00668086776241 0.0335869903436 -0.0327249234749) : omega : 	0.0479126133149 : d : 	(0.137949689641 0.693519922661 -0.707106781187)
	I194 : dAve : 	(0.0110076939702 0.0324276207555 -0.0327249234749) : omega : 	0.0479126133149 : d : 	(0.227292025657 0.669580715876 -0.707106781187)
	I195 : dAve : 	(0.0151461754823 0.0307134055855 -0.0327249234749) : omega : 	0.0479126133149 : d : 	(0.312745332096 0.634184797399 -0.707106781187)
	I196 : dAve : 	(0.0190255017326 0.0284736755306 -0.0327249234749) : omega : 	0.0479126133149 : d : 	(0.392847479194 0.58793780121 -0.707106781187)
	I197 : dAve : 	(0.0225792963734 0.025746752993 -0.0327249234749) : omega : 	0.0479126133149 : d : 	(0.466227897004 0.531631026234 -0.707106781187)
	I198 : dAve : 	(0.025746752993 0.0225792963734 -0.0327249234749) : omega : 	0.0479126133149 : d : 	(0.531631026234 0.466227897004 -0.707106781187)
	I199 : dAve : 	(0.0284736755306 0.0190255017326 -0.0327249234749) : omega : 	0.0479126133149 : d : 	(0.58793780121 0.392847479194 -0.707106781187)
	I200 : dAve : 	(0.0307134055855 0.0151461754823 -0.0327249234749) : omega : 	0.0479126133149 : d : 	(0.634184797399 0.312745332096 -0.707106781187)
	I201 : dAve : 	(0.0324276207555 0.0110076939702 -0.0327249234749) : omega : 	0.0479126133149 : d : 	(0.669580715876 0.227292025657 -0.707106781187)
	I202 : dAve : 	(0.0335869903436 0.00668086776241 -0.0327249234749) : omega : 	0.0479126133149 : d : 	(0.693519922661 0.137949689641 -0.707106781187)
	I203 : dAve : 	(0.034171677215 0.00223973005487 -0.0327249234749) : omega : 	0.0479126133149 : d : 	(0.70559281129 0.0462469961895 -0.707106781187)
	I204 : dAve : 	(0.034171677215 -0.00223973005487 -0.0327249234749) : omega : 	0.0479126133149 : d : 	(0.70559281129 -0.0462469961895 -0.707106781187)
	I205 : dAve : 	(0.0335869903436 -0.00668086776241 -0.0327249234749) : omega : 	0.0479126133149 : d : 	(0.693519922661 -0.137949689641 -0.707106781187)
	I206 : dAve : 	(0.0324276207555 -0.0110076939702 -0.0327249234749) : omega : 	0.0479126133149 : d : 	(0.669580715876 -0.227292025657 -0.707106781187)
	I207 : dAve : 	(0.0307134055855 -0.0151461754823 -0.0327249234749) : omega : 	0.0479126133149 : d : 	(0.634184797399 -0.312745332096 -0.707106781187)
	I208 : dAve : 	(0.0284736755306 -0.0190255017326 -0.0327249234749) : omega : 	0.0479126133149 : d : 	(0.58793780121 -0.392847479194 -0.707106781187)
	I209 : dAve : 	(0.025746752993 -0.0225792963734 -0.0327249234749) : omega : 	0.0479126133149 : d : 	(0.531631026234 -0.466227897004 -0.707106781187)
	I210 : dAve : 	(0.0225792963734 -0.025746752993 -0.0327249234749) : omega : 	0.0479126133149 : d : 	(0.466227897004 -0.531631026234 -0.707106781187)
	I211 : dAve : 	(0.0190255017326 -0.0284736755306 -0.0327249234749) : omega : 	0.0479126133149 : d : 	(0.392847479194 -0.58793780121 -0.707106781187)
	I212 : dAve : 	(0.0151461754823 -0.0307134055855 -0.0327249234749) : omega : 	0.0479126133149 : d : 	(0.312745332096 -0.634184797399 -0.707106781187)
	I213 : dAve : 	(0.0110076939702 -0.0324276207555 -0.0327249234749) : omega : 	0.0479126133149 : d : 	(0.227292025657 -0.669580715876 -0.707106781187)
	I214 : dAve : 	(0.00668086776241 -0.0335869903436 -0.0327249234749) : omega : 	0.0479126133149 : d : 	(0.137949689641 -0.693519922661 -0.707106781187)
	I215 : dAve : 	(0.00223973005487 -0.034171677215 -0.0327249234749) : omega : 	0.0479126133149 : d : 	(0.0462469961895 -0.70559281129 -0.707106781187)
	I216 : dAve : 	(-0.00223973005487 -0.034171677215 -0.0327249234749) : omega : 	0.0479126133149 : d : 	(-0.0462469961895 -0.70559281129 -0.707106781187)
	I217 : dAve : 	(-0.00668086776241 -0.0335869903436 -0.0327249234749) : omega : 	0.0479126133149 : d : 	(-0.137949689641 -0.693519922661 -0.707106781187)
	I218 : dAve : 	(-0.0110076939702 -0.0324276207555 -0.0327249234749) : omega : 	0.0479126133149 : d : 	(-0.227292025657 -0.669580715876 -0.707106781187)
	I219 : dAve : 	(-0.0151461754823 -0.0307134055855 -0.0327249234749) : omega : 	0.0479126133149 : d : 	(-0.312745332096 -0.634184797399 -0.707106781187)
	I220 : dAve : 	(-0.0190255017326 -0.0284736755306 -0.0327249234749) : omega : 	0.0479126133149 : d : 	(-0.392847479194 -0.58793780121 -0.707106781187)
	I221 : dAve : 	(-0.0225792963734 -0.025746752993 -0.0327249234749) : omega : 	0.0479126133149 : d : 	(-0.466227897004 -0.531631026234 -0.707106781187)
	I222 : dAve : 	(-0.025746752993 -0.0225792963734 -0.0327249234749) : omega : 	0.0479126133149 : d : 	(-0.531631026234 -0.466227897004 -0.707106781187)
	I223 : dAve : 	(-0.0284736755306 -0.0190255017326 -0.0327249234749) : omega : 	0.0479126133149 : d : 	(-0.58793780121 -0.392847479194 -0.707106781187)
	I224 : dAve : 	(-0.0307134055855 -0.0151461754823 -0.0327249234749) : omega : 	0.0479126133149 : d : 	(-0.634184797399 -0.312745332096 -0.707106781187)
	I225 : dAve : 	(-0.0324276207555 -0.0110076939702 -0.0327249234749) : omega : 	0.0479126133149 : d : 	(-0.669580715876 -0.227292025657 -0.707106781187)
	I226 : dAve : 	(-0.0335869903436 -0.00668086776241 -0.0327249234749) : omega : 	0.0479126133149 : d : 	(-0.693519922661 -0.137949689641 -0.707106781187)
	I227 : dAve : 	(-0.034171677215 -0.00223973005487 -0.0327249234749) : omega : 	0.0479126133149 : d : 	(-0.70559281129 -0.0462469961895 -0.707106781187)
	I228 : dAve : 	(-0.034171677215 0.00223973005487 -0.0327249234749) : omega : 	0.0479126133149 : d : 	(-0.70559281129 0.0462469961895 -0.707106781187)
	I229 : dAve : 	(-0.0335869903436 0.00668086776241 -0.0327249234749) : omega : 	0.0479126133149 : d : 	(-0.693519922661 0.137949689641 -0.707106781187)
	I230 : dAve : 	(-0.0324276207555 0.0110076939702 -0.0327249234749) : omega : 	0.0479126133149 : d : 	(-0.669580715876 0.227292025657 -0.707106781187)
	I231 : dAve : 	(-0.0307134055855 0.0151461754823 -0.0327249234749) : omega : 	0.0479126133149 : d : 	(-0.634184797399 0.312745332096 -0.707106781187)
	I232 : dAve : 	(-0.0284736755306 0.0190255017326 -0.0327249234749) : omega : 	0.0479126133149 : d : 	(-0.58793780121 0.392847479194 -0.707106781187)
	I233 : dAve : 	(-0.025746752993 0.0225792963734 -0.0327249234749) : omega : 	0.0479126133149 : d : 	(-0.531631026234 0.466227897004 -0.707106781187)
	I234 : dAve : 	(-0.0225792963734 0.025746752993 -0.0327249234749) : omega : 	0.0479126133149 : d : 	(-0.466227897004 0.531631026234 -0.707106781187)
	I235 : dAve : 	(-0.0190255017326 0.0284736755306 -0.0327249234749) : omega : 	0.0479126133149 : d : 	(-0.392847479194 0.58793780121 -0.707106781187)
	I236 : dAve : 	(-0.0151461754823 0.0307134055855 -0.0327249234749) : omega : 	0.0479126133149 : d : 	(-0.312745332096 0.634184797399 -0.707106781187)
	I237 : dAve : 	(-0.0110076939702 0.0324276207555 -0.0327249234749) : omega : 	0.0479126133149 : d : 	(-0.227292025657 0.669580715876 -0.707106781187)
	I238 : dAve : 	(-0.00668086776241 0.0335869903436 -0.0327249234749) : omega : 	0.0479126133149 : d : 	(-0.137949689641 0.693519922661 -0.707106781187)
	I239 : dAve : 	(-0.00223973005487 0.034171677215 -0.0327249234749) : omega : 	0.0479126133149 : d : 	(-0.0462469961895 0.70559281129 -0.707106781187)
	I240 : dAve : 	(0.000387488209079 0.00591192763451 -0.0163624617374) : omega : 	0.0175372336349 : d : 	(0.0169275754541 0.25826489366 -0.965925826289)
	I241 : dAve : 	(0.00115583459655 0.00581077291359 -0.0163624617374) : omega : 	0.0175372336349 : d : 	(0.050493090853 0.253845909725 -0.965925826289)
	I242 : dAve : 	(0.00190440433361 0.00561019425706 -0.0163624617374) : omega : 	0.0175372336349 : d : 	(0.083194655468 0.245083551895 -0.965925826289)
	I243 : dAve : 	(0.00262038918453 0.00531362362136 -0.0163624617374) : omega : 	0.0175372336349 : d : 	(0.114472736462 0.232127746542 -0.965925826289)
	I244 : dAve : 	(0.00329153844998 0.00492613541228 -0.0163624617374) : omega : 	0.0175372336349 : d : 	(0.143792157198 0.215200171088 -0.965925826289)
	I245 : dAve : 	(0.00390636857998 0.00445435966052 -0.0163624617374) : omega : 	0.0175372336349 : d : 	(0.170651254257 0.194590461042 -0.965925826289)
	I246 : dAve : 	(0.00445435966052 0.00390636857998 -0.0163624617374) : omega : 	0.0175372336349 : d : 	(0.194590461042 0.170651254257 -0.965925826289)
	I247 : dAve : 	(0.00492613541228 0.00329153844998 -0.0163624617374) : omega : 	0.0175372336349 : d : 	(0.215200171088 0.143792157198 -0.965925826289)
	I248 : dAve : 	(0.00531362362136 0.00262038918453 -0.0163624617374) : omega : 	0.0175372336349 : d : 	(0.232127746542 0.114472736462 -0.965925826289)
	I249 : dAve : 	(0.00561019425706 0.00190440433361 -0.0163624617374) : omega : 	0.0175372336349 : d : 	(0.245083551895 0.083194655468 -0.965925826289)
	I250 : dAve : 	(0.00581077291359 0.00115583459655 -0.0163624617374) : omega : 	0.0175372336349 : d : 	(0.253845909725 0.050493090853 -0.965925826289)
	I251 : dAve : 	(0.00591192763451 0.000387488209079 -0.0163624617374) : omega : 	0.0175372336349 : d : 	(0.25826489366 0.0169275754541 -0.965925826289)
	I252 : dAve : 	(0.00591192763451 -0.000387488209079 -0.0163624617374) : omega : 	0.0175372336349 : d : 	(0.25826489366 -0.0169275754541 -0.965925826289)
	I253 : dAve : 	(0.00581077291359 -0.00115583459655 -0.0163624617374) : omega : 	0.0175372336349 : d : 	(0.253845909725 -0.050493090853 -0.965925826289)
	I254 : dAve : 	(0.00561019425706 -0.00190440433361 -0.0163624617374) : omega : 	0.0175372336349 : d : 	(0.245083551895 -0.083194655468 -0.965925826289)
	I255 : dAve : 	(0.00531362362136 -0.00262038918453 -0.0163624617374) : omega : 	0.0175372336349 : d : 	(0.232127746542 -0.114472736462 -0.965925826289)
	I256 : dAve : 	(0.00492613541228 -0.00329153844998 -0.0163624617374) : omega : 	0.0175372336349 : d : 	(0.215200171088 -0.143792157198 -0.965925826289)
	I257 : dAve : 	(0.00445435966052 -0.00390636857998 -0.0163624617374) : omega : 	0.0175372336349 : d : 	(0.194590461042 -0.170651254257 -0.965925826289)
	I258 : dAve : 	(0.00390636857998 -0.00445435966052 -0.0163624617374) : omega : 	0.0175372336349 : d : 	(0.170651254257 -0.194590461042 -0.965925826289)
	I259 : dAve : 	(0.00329153844998 -0.00492613541228 -0.0163624617374) : omega : 	0.0175372336349 : d : 	(0.143792157198 -0.215200171088 -0.965925826289)
	I260 : dAve : 	(0.00262038918453 -0.00531362362136 -0.0163624617374) : omega : 	0.0175372336349 : d : 	(0.114472736462 -0.232127746542 -0.965925826289)
	I261 : dAve : 	(0.00190440433361 -0.00561019425706 -0.0163624617374) : omega : 	0.0175372336349 : d : 	(0.083194655468 -0.245083551895 -0.965925826289)
	I262 : dAve : 	(0.00115583459655 -0.00581077291359 -0.0163624617374) : omega : 	0.0175372336349 : d : 	(0.050493090853 -0.253845909725 -0.965925826289)
	I263 : dAve : 	(0.000387488209079 -0.00591192763451 -0.0163624617374) : omega : 	0.0175372336349 : d : 	(0.0169275754541 -0.25826489366 -0.965925826289)
	I264 : dAve : 	(-0.000387488209079 -0.00591192763451 -0.0163624617374) : omega : 	0.0175372336349 : d : 	(-0.0169275754541 -0.25826489366 -0.965925826289)
	I265 : dAve : 	(-0.00115583459655 -0.00581077291359 -0.0163624617374) : omega : 	0.0175372336349 : d : 	(-0.050493090853 -0.253845909725 -0.965925826289)
	I266 : dAve : 	(-0.00190440433361 -0.00561019425706 -0.0163624617374) : omega : 	0.0175372336349 : d : 	(-0.083194655468 -0.245083551895 -0.965925826289)
	I267 : dAve : 	(-0.00262038918453 -0.00531362362136 -0.0163624617374) : omega : 	0.0175372336349 : d : 	(-0.114472736462 -0.232127746542 -0.965925826289)
	I268 : dAve : 	(-0.00329153844998 -0.00492613541228 -0.0163624617374) : omega : 	0.0175372336349 : d : 	(-0.143792157198 -0.215200171088 -0.965925826289)
	I269 : dAve : 	(-0.00390636857998 -0.00445435966052 -0.0163624617374) : omega : 	0.0175372336349 : d : 	(-0.170651254257 -0.194590461042 -0.965925826289)
	I270 : dAve : 	(-0.00445435966052 -0.00390636857998 -0.0163624617374) : omega : 	0.0175372336349 : d : 	(-0.194590461042 -0.170651254257 -0.965925826289)
	I271 : dAve : 	(-0.00492613541228 -0.00329153844998 -0.0163624617374) : omega : 	0.0175372336349 : d : 	(-0.215200171088 -0.143792157198 -0.965925826289)
	I272 : dAve : 	(-0.00531362362136 -0.00262038918453 -0.0163624617374) : omega : 	0.0175372336349 : d : 	(-0.232127746542 -0.114472736462 -0.965925826289)
	I273 : dAve : 	(-0.00561019425706 -0.00190440433361 -0.0163624617374) : omega : 	0.0175372336349 : d : 	(-0.245083551895 -0.083194655468 -0.965925826289)
	I274 : dAve : 	(-0.00581077291359 -0.00115583459655 -0.0163624617374) : omega : 	0.0175372336349 : d : 	(-0.253845909725 -0.050493090853 -0.965925826289)
	I275 : dAve : 	(-0.00591192763451 -0.000387488209079 -0.0163624617374) : omega : 	0.0175372336349 : d : 	(-0.25826489366 -0.0169275754541 -0.965925826289)
	I276 : dAve : 	(-0.00591192763451 0.000387488209079 -0.0163624617374) : omega : 	0.0175372336349 : d : 	(-0.25826489366 0.0169275754541 -0.965925826289)
	I277 : dAve : 	(-0.00581077291359 0.00115583459655 -0.0163624617374) : omega : 	0.0175372336349 : d : 	(-0.253845909725 0.050493090853 -0.965925826289)
	I278 : dAve : 	(-0.00561019425706 0.00190440433361 -0.0163624617374) : omega : 	0.0175372336349 : d : 	(-0.245083551895 0.083194655468 -0.965925826289)
	I279 : dAve : 	(-0.00531362362136 0.00262038918453 -0.0163624617374) : omega : 	0.0175372336349 : d : 	(-0.232127746542 0.114472736462 -0.965925826289)
	I280 : dAve : 	(-0.00492613541228 0.00329153844998 -0.0163624617374) : omega : 	0.0175372336349 : d : 	(-0.215200171088 0.143792157198 -0.965925826289)
	I281 : dAve : 	(-0.00445435966052 0.00390636857998 -0.0163624617374) : omega : 	0.0175372336349 : d : 	(-0.194590461042 0.170651254257 -0.965925826289)
	I282 : dAve : 	(-0.00390636857998 0.00445435966052 -0.0163624617374) : omega : 	0.0175372336349 : d : 	(-0.170651254257 0.194590461042 -0.965925826289)
	I283 : dAve : 	(-0.00329153844998 0.00492613541228 -0.0163624617374) : omega : 	0.0175372336349 : d : 	(-0.143792157198 0.215200171088 -0.965925826289)
	I284 : dAve : 	(-0.00262038918453 0.00531362362136 -0.0163624617374) : omega : 	0.0175372336349 : d : 	(-0.114472736462 0.232127746542 -0.965925826289)
	I285 : dAve : 	(-0.00190440433361 0.00561019425706 -0.0163624617374) : omega : 	0.0175372336349 : d : 	(-0.083194655468 0.245083551895 -0.965925826289)
	I286 : dAve : 	(-0.00115583459655 0.00581077291359 -0.0163624617374) : omega : 	0.0175372336349 : d : 	(-0.050493090853 0.253845909725 -0.965925826289)
	I287 : dAve : 	(-0.000387488209079 0.00591192763451 -0.0163624617374) : omega : 	0.0175372336349 : d : 	(-0.0169275754541 0.25826489366 -0.965925826289)
Total omega : 12.5663706144

Courant Number mean: 0 max: 0

Starting time loop

Sampled set:
    data -> csv

Sampled set:
    data -> csv

Sampled surface:
    yNormal -> ensight
        sampledCuttingPlane: yNormal : plane:(0 1 0) (0 0 0) offsets:(0)

Sampled surface:
    zNormal -> ensight
        sampledCuttingPlane: zNormal : plane:(0 0 1) (0 0 0) offsets:(0)

Sampled surface:
    patchAll -> ensight
        sampledPatch: patchAll : patches:(".*WW.*")

deltaT = 1
Time = 1

PIMPLE: iteration 1
Radiation solver iter: 0
DILUPBiCGStab:  Solving for ILambda_0_0, Initial residual = 1, Final residual = 6.27081997495e-62, No Iterations 2
DILUPBiCGStab:  Solving for ILambda_1_0, Initial residual = 1, Final residual = 2.36974152768e-61, No Iterations 2
DILUPBiCGStab:  Solving for ILambda_2_0, Initial residual = 1, Final residual = 1.2414900134e-75, No Iterations 3
DILUPBiCGStab:  Solving for ILambda_3_0, Initial residual = 1, Final residual = 3.8377240196e-75, No Iterations 3
DILUPBiCGStab:  Solving for ILambda_4_0, Initial residual = 1, Final residual = 3.97564597837e-73, No Iterations 3
DILUPBiCGStab:  Solving for ILambda_5_0, Initial residual = 1, Final residual = 4.97969098933e-75, No Iterations 3
DILUPBiCGStab:  Solving for ILambda_6_0, Initial residual = 1, Final residual = 9.1958266879e-61, No Iterations 2
DILUPBiCGStab:  Solving for ILambda_7_0, Initial residual = 1, Final residual = 7.94713674205e-61, No Iterations 2
DILUPBiCGStab:  Solving for ILambda_8_0, Initial residual = 1, Final residual = 2.45029804846e-74, No Iterations 3
DILUPBiCGStab:  Solving for ILambda_9_0, Initial residual = 1, Final residual = 2.21747317293e-73, No Iterations 3
DILUPBiCGStab:  Solving for ILambda_10_0, Initial residual = 1, Final residual = 1.68065830826e-61, No Iterations 2
DILUPBiCGStab:  Solving for ILambda_11_0, Initial residual = 1, Final residual = 1.17628430079e-61, No Iterations 2
DILUPBiCGStab:  Solving for ILambda_12_0, Initial residual = 1, Final residual = 1.54802590093e-61, No Iterations 26
DILUPBiCGStab:  Solving for ILambda_13_0, Initial residual = 1, Final residual = 4.77038903614e-62, No Iterations 35
DILUPBiCGStab:  Solving for ILambda_14_0, Initial residual = 1, Final residual = 2.1341497667e-61, No Iterations 38
DILUPBiCGStab:  Solving for ILambda_15_0, Initial residual = 1, Final residual = 7.00745421184e-61, No Iterations 40
DILUPBiCGStab:  Solving for ILambda_16_0, Initial residual = 1, Final residual = 1.00837234921e-61, No Iterations 40
DILUPBiCGStab:  Solving for ILambda_17_0, Initial residual = 1, Final residual = 1.88302690716e-61, No Iterations 39
DILUPBiCGStab:  Solving for ILambda_18_0, Initial residual = 1, Final residual = 1.8504520355e-61, No Iterations 40
DILUPBiCGStab:  Solving for ILambda_19_0, Initial residual = 1, Final residual = 2.45007315199e-61, No Iterations 39
DILUPBiCGStab:  Solving for ILambda_20_0, Initial residual = 1, Final residual = 9.41952631179e-62, No Iterations 39
DILUPBiCGStab:  Solving for ILambda_21_0, Initial residual = 1, Final residual = 1.29698557281e-61, No Iterations 37
DILUPBiCGStab:  Solving for ILambda_22_0, Initial residual = 1, Final residual = 8.48276126397e-61, No Iterations 32
DILUPBiCGStab:  Solving for ILambda_23_0, Initial residual = 1, Final residual = 1.02231971002e-61, No Iterations 25
DILUPBiCGStab:  Solving for ILambda_24_0, Initial residual = 1, Final residual = 8.68595935647e-61, No Iterations 16
DILUPBiCGStab:  Solving for ILambda_25_0, Initial residual = 1, Final residual = 3.59555847402e-62, No Iterations 16
DILUPBiCGStab:  Solving for ILambda_26_0, Initial residual = 1, Final residual = 7.96180464314e-62, No Iterations 13
DILUPBiCGStab:  Solving for ILambda_27_0, Initial residual = 1, Final residual = 1.76156973697e-61, No Iterations 16
DILUPBiCGStab:  Solving for ILambda_28_0, Initial residual = 1, Final residual = 5.46084396048e-63, No Iterations 16
DILUPBiCGStab:  Solving for ILambda_29_0, Initial residual = 1, Final residual = 4.64866847424e-61, No Iterations 15
DILUPBiCGStab:  Solving for ILambda_30_0, Initial residual = 1, Final residual = 7.29965141265e-61, No Iterations 15
DILUPBiCGStab:  Solving for ILambda_31_0, Initial residual = 1, Final residual = 1.65481134951e-61, No Iterations 17
DILUPBiCGStab:  Solving for ILambda_32_0, Initial residual = 1, Final residual = 3.29577133112e-65, No Iterations 15
DILUPBiCGStab:  Solving for ILambda_33_0, Initial residual = 1, Final residual = 1.50894340072e-61, No Iterations 17
DILUPBiCGStab:  Solving for ILambda_34_0, Initial residual = 1, Final residual = 9.24752033026e-63, No Iterations 17
DILUPBiCGStab:  Solving for ILambda_35_0, Initial residual = 1, Final residual = 1.38217485735e-64, No Iterations 17
DILUPBiCGStab:  Solving for ILambda_36_0, Initial residual = 1, Final residual = 2.10209754319e-61, No Iterations 25
DILUPBiCGStab:  Solving for ILambda_37_0, Initial residual = 1, Final residual = 8.47557167722e-61, No Iterations 33
DILUPBiCGStab:  Solving for ILambda_38_0, Initial residual = 1, Final residual = 4.32874643725e-61, No Iterations 37
DILUPBiCGStab:  Solving for ILambda_39_0, Initial residual = 1, Final residual = 9.06031786882e-61, No Iterations 38
DILUPBiCGStab:  Solving for ILambda_40_0, Initial residual = 1, Final residual = 5.36060022136e-62, No Iterations 41
DILUPBiCGStab:  Solving for ILambda_41_0, Initial residual = 1, Final residual = 1.6227427786e-61, No Iterations 39
DILUPBiCGStab:  Solving for ILambda_42_0, Initial residual = 1, Final residual = 1.73808192776e-61, No Iterations 40
DILUPBiCGStab:  Solving for ILambda_43_0, Initial residual = 1, Final residual = 1.51906836842e-61, No Iterations 40
DILUPBiCGStab:  Solving for ILambda_44_0, Initial residual = 1, Final residual = 4.62420837235e-61, No Iterations 39
DILUPBiCGStab:  Solving for ILambda_45_0, Initial residual = 1, Final residual = 1.71253889211e-61, No Iterations 38
DILUPBiCGStab:  Solving for ILambda_46_0, Initial residual = 1, Final residual = 2.38647070786e-61, No Iterations 35
DILUPBiCGStab:  Solving for ILambda_47_0, Initial residual = 1, Final residual = 1.85462045745e-61, No Iterations 26
DILUPBiCGStab:  Solving for ILambda_48_0, Initial residual = 1, Final residual = 1.92578822446e-72, No Iterations 3
DILUPBiCGStab:  Solving for ILambda_49_0, Initial residual = 1, Final residual = 5.86408003468e-74, No Iterations 3
DILUPBiCGStab:  Solving for ILambda_50_0, Initial residual = 1, Final residual = 1.34566478918e-73, No Iterations 3
DILUPBiCGStab:  Solving for ILambda_51_0, Initial residual = 1, Final residual = 2.545735702e-73, No Iterations 3
DILUPBiCGStab:  Solving for ILambda_52_0, Initial residual = 1, Final residual = 3.64365961756e-73, No Iterations 3
DILUPBiCGStab:  Solving for ILambda_53_0, Initial residual = 1, Final residual = 9.24096937745e-74, No Iterations 3
DILUPBiCGStab:  Solving for ILambda_54_0, Initial residual = 1, Final residual = 3.29547241017e-74, No Iterations 3
DILUPBiCGStab:  Solving for ILambda_55_0, Initial residual = 1, Final residual = 6.76310878014e-73, No Iterations 3
DILUPBiCGStab:  Solving for ILambda_56_0, Initial residual = 1, Final residual = 4.13004025509e-73, No Iterations 3
DILUPBiCGStab:  Solving for ILambda_57_0, Initial residual = 1, Final residual = 2.55215545592e-73, No Iterations 3
DILUPBiCGStab:  Solving for ILambda_58_0, Initial residual = 1, Final residual = 3.59425714793e-73, No Iterations 3
DILUPBiCGStab:  Solving for ILambda_59_0, Initial residual = 1, Final residual = 2.02114365856e-73, No Iterations 3
DILUPBiCGStab:  Solving for ILambda_60_0, Initial residual = 1, Final residual = 2.48331433652e-62, No Iterations 27
DILUPBiCGStab:  Solving for ILambda_61_0, Initial residual = 1, Final residual = 2.06209077142e-61, No Iterations 36
DILUPBiCGStab:  Solving for ILambda_62_0, Initial residual = 1, Final residual = 3.89970456861e-61, No Iterations 39
DILUPBiCGStab:  Solving for ILambda_63_0, Initial residual = 1, Final residual = 5.40097431712e-61, No Iterations 41
DILUPBiCGStab:  Solving for ILambda_64_0, Initial residual = 1, Final residual = 1.82344735346e-61, No Iterations 41
DILUPBiCGStab:  Solving for ILambda_65_0, Initial residual = 1, Final residual = 6.62043757057e-61, No Iterations 40
DILUPBiCGStab:  Solving for ILambda_66_0, Initial residual = 1, Final residual = 1.47498179984e-61, No Iterations 42
DILUPBiCGStab:  Solving for ILambda_67_0, Initial residual = 1, Final residual = 2.91132823269e-62, No Iterations 41
DILUPBiCGStab:  Solving for ILambda_68_0, Initial residual = 1, Final residual = 2.2906575683e-61, No Iterations 41
DILUPBiCGStab:  Solving for ILambda_69_0, Initial residual = 1, Final residual = 5.75393275249e-61, No Iterations 38
DILUPBiCGStab:  Solving for ILambda_70_0, Initial residual = 1, Final residual = 8.29659051166e-62, No Iterations 33
DILUPBiCGStab:  Solving for ILambda_71_0, Initial residual = 1, Final residual = 6.0217182651e-61, No Iterations 25
DILUPBiCGStab:  Solving for ILambda_72_0, Initial residual = 1, Final residual = 9.85382929246e-61, No Iterations 15
DILUPBiCGStab:  Solving for ILambda_73_0, Initial residual = 1, Final residual = 1.6044810517e-62, No Iterations 19
DILUPBiCGStab:  Solving for ILambda_74_0, Initial residual = 1, Final residual = 8.24097014025e-65, No Iterations 17
DILUPBiCGStab:  Solving for ILambda_75_0, Initial residual = 1, Final residual = 7.27918317297e-62, No Iterations 21
DILUPBiCGStab:  Solving for ILambda_76_0, Initial residual = 1, Final residual = 2.7762559757e-63, No Iterations 17
DILUPBiCGStab:  Solving for ILambda_77_0, Initial residual = 1, Final residual = 7.88906144909e-61, No Iterations 15
DILUPBiCGStab:  Solving for ILambda_78_0, Initial residual = 1, Final residual = 1.54435255468e-63, No Iterations 16
DILUPBiCGStab:  Solving for ILambda_79_0, Initial residual = 1, Final residual = 8.01164368037e-62, No Iterations 16
DILUPBiCGStab:  Solving for ILambda_80_0, Initial residual = 1, Final residual = 7.84389932829e-63, No Iterations 16
DILUPBiCGStab:  Solving for ILambda_81_0, Initial residual = 1, Final residual = 2.83994634192e-62, No Iterations 14
DILUPBiCGStab:  Solving for ILambda_82_0, Initial residual = 1, Final residual = 6.83878563981e-62, No Iterations 15
DILUPBiCGStab:  Solving for ILambda_83_0, Initial residual = 1, Final residual = 8.47490719747e-62, No Iterations 20
DILUPBiCGStab:  Solving for ILambda_84_0, Initial residual = 1, Final residual = 1.4114548925e-61, No Iterations 25
DILUPBiCGStab:  Solving for ILambda_85_0, Initial residual = 1, Final residual = 6.74814548764e-62, No Iterations 33
DILUPBiCGStab:  Solving for ILambda_86_0, Initial residual = 1, Final residual = 1.66360794329e-61, No Iterations 37
DILUPBiCGStab:  Solving for ILambda_87_0, Initial residual = 1, Final residual = 9.97991381102e-61, No Iterations 40
DILUPBiCGStab:  Solving for ILambda_88_0, Initial residual = 1, Final residual = 8.55399316701e-61, No Iterations 40
DILUPBiCGStab:  Solving for ILambda_89_0, Initial residual = 1, Final residual = 2.11732351e-61, No Iterations 41
DILUPBiCGStab:  Solving for ILambda_90_0, Initial residual = 1, Final residual = 1.28729832369e-61, No Iterations 41
DILUPBiCGStab:  Solving for ILambda_91_0, Initial residual = 1, Final residual = 1.6798349525e-61, No Iterations 42
DILUPBiCGStab:  Solving for ILambda_92_0, Initial residual = 1, Final residual = 1.90830668151e-61, No Iterations 41
DILUPBiCGStab:  Solving for ILambda_93_0, Initial residual = 1, Final residual = 2.43656163082e-61, No Iterations 39
DILUPBiCGStab:  Solving for ILambda_94_0, Initial residual = 1, Final residual = 1.53645478847e-61, No Iterations 36
DILUPBiCGStab:  Solving for ILambda_95_0, Initial residual = 1, Final residual = 2.01384167784e-61, No Iterations 27
DILUPBiCGStab:  Solving for ILambda_96_0, Initial residual = 1, Final residual = 2.48902577396e-75, No Iterations 3
DILUPBiCGStab:  Solving for ILambda_97_0, Initial residual = 1, Final residual = 5.24795446099e-74, No Iterations 3
DILUPBiCGStab:  Solving for ILambda_98_0, Initial residual = 1, Final residual = 2.72149648142e-73, No Iterations 3
DILUPBiCGStab:  Solving for ILambda_99_0, Initial residual = 1, Final residual = 1.80597377923e-73, No Iterations 3
DILUPBiCGStab:  Solving for ILambda_100_0, Initial residual = 1, Final residual = 1.67566811159e-73, No Iterations 3
DILUPBiCGStab:  Solving for ILambda_101_0, Initial residual = 1, Final residual = 1.70571423303e-73, No Iterations 3
DILUPBiCGStab:  Solving for ILambda_102_0, Initial residual = 1, Final residual = 9.2640871967e-74, No Iterations 3
DILUPBiCGStab:  Solving for ILambda_103_0, Initial residual = 1, Final residual = 1.61789707831e-72, No Iterations 3
DILUPBiCGStab:  Solving for ILambda_104_0, Initial residual = 1, Final residual = 2.55993891408e-73, No Iterations 3
DILUPBiCGStab:  Solving for ILambda_105_0, Initial residual = 1, Final residual = 2.26252569852e-73, No Iterations 3
DILUPBiCGStab:  Solving for ILambda_106_0, Initial residual = 1, Final residual = 1.12478128043e-73, No Iterations 3
DILUPBiCGStab:  Solving for ILambda_107_0, Initial residual = 1, Final residual = 2.14746914443e-74, No Iterations 3
DILUPBiCGStab:  Solving for ILambda_108_0, Initial residual = 1, Final residual = 2.55702130667e-61, No Iterations 28
DILUPBiCGStab:  Solving for ILambda_109_0, Initial residual = 1, Final residual = 6.47969094701e-61, No Iterations 35
DILUPBiCGStab:  Solving for ILambda_110_0, Initial residual = 1, Final residual = 5.50994485267e-61, No Iterations 39
DILUPBiCGStab:  Solving for ILambda_111_0, Initial residual = 1, Final residual = 7.18312355321e-61, No Iterations 42
DILUPBiCGStab:  Solving for ILambda_112_0, Initial residual = 1, Final residual = 3.12104247772e-61, No Iterations 42
DILUPBiCGStab:  Solving for ILambda_113_0, Initial residual = 1, Final residual = 7.77247821593e-61, No Iterations 43
DILUPBiCGStab:  Solving for ILambda_114_0, Initial residual = 1, Final residual = 1.09193043301e-61, No Iterations 44
DILUPBiCGStab:  Solving for ILambda_115_0, Initial residual = 1, Final residual = 5.9328780102e-61, No Iterations 43
DILUPBiCGStab:  Solving for ILambda_116_0, Initial residual = 1, Final residual = 7.13209583349e-61, No Iterations 41
DILUPBiCGStab:  Solving for ILambda_117_0, Initial residual = 1, Final residual = 4.50861899525e-62, No Iterations 39
DILUPBiCGStab:  Solving for ILambda_118_0, Initial residual = 1, Final residual = 9.98779063568e-61, No Iterations 33
DILUPBiCGStab:  Solving for ILambda_119_0, Initial residual = 1, Final residual = 1.66347377882e-62, No Iterations 26
DILUPBiCGStab:  Solving for ILambda_120_0, Initial residual = 1, Final residual = 1.90368792807e-61, No Iterations 23
DILUPBiCGStab:  Solving for ILambda_121_0, Initial residual = 1, Final residual = 6.59334817617e-62, No Iterations 17
DILUPBiCGStab:  Solving for ILambda_122_0, Initial residual = 1, Final residual = 5.48099860541e-61, No Iterations 21
DILUPBiCGStab:  Solving for ILambda_123_0, Initial residual = 1, Final residual = 8.53529995527e-61, No Iterations 32
DILUPBiCGStab:  Solving for ILambda_124_0, Initial residual = 1, Final residual = 6.27338381439e-62, No Iterations 18
DILUPBiCGStab:  Solving for ILambda_125_0, Initial residual = 1, Final residual = 1.35347798775e-63, No Iterations 17
DILUPBiCGStab:  Solving for ILambda_126_0, Initial residual = 1, Final residual = 2.55560100123e-61, No Iterations 21
DILUPBiCGStab:  Solving for ILambda_127_0, Initial residual = 1, Final residual = 1.26455575739e-61, No Iterations 18
DILUPBiCGStab:  Solving for ILambda_128_0, Initial residual = 1, Final residual = 3.21380230793e-61, No Iterations 19
DILUPBiCGStab:  Solving for ILambda_129_0, Initial residual = 1, Final residual = 2.09966829966e-62, No Iterations 18
DILUPBiCGStab:  Solving for ILambda_130_0, Initial residual = 1, Final residual = 6.62779680844e-64, No Iterations 16
DILUPBiCGStab:  Solving for ILambda_131_0, Initial residual = 1, Final residual = 3.938217371e-61, No Iterations 23
DILUPBiCGStab:  Solving for ILambda_132_0, Initial residual = 1, Final residual = 4.43646583148e-61, No Iterations 25
DILUPBiCGStab:  Solving for ILambda_133_0, Initial residual = 1, Final residual = 4.22866284463e-61, No Iterations 33
DILUPBiCGStab:  Solving for ILambda_134_0, Initial residual = 1, Final residual = 3.54889109589e-61, No Iterations 39
DILUPBiCGStab:  Solving for ILambda_135_0, Initial residual = 1, Final residual = 3.87010742023e-61, No Iterations 41
DILUPBiCGStab:  Solving for ILambda_136_0, Initial residual = 1, Final residual = 3.62941349341e-61, No Iterations 42
DILUPBiCGStab:  Solving for ILambda_137_0, Initial residual = 1, Final residual = 3.00537490796e-61, No Iterations 42
DILUPBiCGStab:  Solving for ILambda_138_0, Initial residual = 1, Final residual = 4.68265402386e-61, No Iterations 43
DILUPBiCGStab:  Solving for ILambda_139_0, Initial residual = 1, Final residual = 8.1506095099e-62, No Iterations 43
DILUPBiCGStab:  Solving for ILambda_140_0, Initial residual = 1, Final residual = 4.02488478427e-61, No Iterations 44
DILUPBiCGStab:  Solving for ILambda_141_0, Initial residual = 1, Final residual = 5.37739687754e-61, No Iterations 39
DILUPBiCGStab:  Solving for ILambda_142_0, Initial residual = 1, Final residual = 4.54859098343e-61, No Iterations 35
DILUPBiCGStab:  Solving for ILambda_143_0, Initial residual = 1, Final residual = 1.05957805968e-61, No Iterations 28
DILUPBiCGStab:  Solving for ILambda_144_0, Initial residual = 1, Final residual = 1.90066780837e-63, No Iterations 16
DILUPBiCGStab:  Solving for ILambda_145_0, Initial residual = 1, Final residual = 9.43433207235e-62, No Iterations 16
DILUPBiCGStab:  Solving for ILambda_146_0, Initial residual = 1, Final residual = 4.87711324372e-61, No Iterations 19
DILUPBiCGStab:  Solving for ILambda_147_0, Initial residual = 1, Final residual = 2.23400277465e-61, No Iterations 20
DILUPBiCGStab:  Solving for ILambda_148_0, Initial residual = 1, Final residual = 1.52330572791e-61, No Iterations 20
DILUPBiCGStab:  Solving for ILambda_149_0, Initial residual = 1, Final residual = 2.89626784614e-64, No Iterations 19
DILUPBiCGStab:  Solving for ILambda_150_0, Initial residual = 1, Final residual = 5.65599401053e-61, No Iterations 17
DILUPBiCGStab:  Solving for ILambda_151_0, Initial residual = 1, Final residual = 3.29269386492e-61, No Iterations 19
DILUPBiCGStab:  Solving for ILambda_152_0, Initial residual = 1, Final residual = 9.59559576203e-63, No Iterations 20
DILUPBiCGStab:  Solving for ILambda_153_0, Initial residual = 1, Final residual = 1.11816960201e-62, No Iterations 15
DILUPBiCGStab:  Solving for ILambda_154_0, Initial residual = 1, Final residual = 2.3963074711e-63, No Iterations 19
DILUPBiCGStab:  Solving for ILambda_155_0, Initial residual = 1, Final residual = 3.13566402878e-65, No Iterations 17
DILUPBiCGStab:  Solving for ILambda_156_0, Initial residual = 1, Final residual = 4.12989685438e-62, No Iterations 27
DILUPBiCGStab:  Solving for ILambda_157_0, Initial residual = 1, Final residual = 1.77125340844e-61, No Iterations 35
DILUPBiCGStab:  Solving for ILambda_158_0, Initial residual = 1, Final residual = 1.87322466641e-61, No Iterations 40
DILUPBiCGStab:  Solving for ILambda_159_0, Initial residual = 1, Final residual = 4.43547850534e-62, No Iterations 43
DILUPBiCGStab:  Solving for ILambda_160_0, Initial residual = 1, Final residual = 9.83625927871e-61, No Iterations 44
DILUPBiCGStab:  Solving for ILambda_161_0, Initial residual = 1, Final residual = 7.19611154929e-61, No Iterations 42
DILUPBiCGStab:  Solving for ILambda_162_0, Initial residual = 1, Final residual = 5.56030289367e-61, No Iterations 42
DILUPBiCGStab:  Solving for ILambda_163_0, Initial residual = 1, Final residual = 2.81115074264e-61, No Iterations 43
DILUPBiCGStab:  Solving for ILambda_164_0, Initial residual = 1, Final residual = 3.51144682775e-61, No Iterations 44
DILUPBiCGStab:  Solving for ILambda_165_0, Initial residual = 1, Final residual = 6.35968153657e-61, No Iterations 39
DILUPBiCGStab:  Solving for ILambda_166_0, Initial residual = 1, Final residual = 5.19981047975e-61, No Iterations 35
DILUPBiCGStab:  Solving for ILambda_167_0, Initial residual = 1, Final residual = 5.07870715797e-62, No Iterations 27
DILUPBiCGStab:  Solving for ILambda_168_0, Initial residual = 1, Final residual = 1.08694862308e-74, No Iterations 3
DILUPBiCGStab:  Solving for ILambda_169_0, Initial residual = 1, Final residual = 3.01232901584e-73, No Iterations 3
DILUPBiCGStab:  Solving for ILambda_170_0, Initial residual = 1, Final residual = 9.59871177235e-74, No Iterations 3
DILUPBiCGStab:  Solving for ILambda_171_0, Initial residual = 1, Final residual = 1.31794689956e-74, No Iterations 3
DILUPBiCGStab:  Solving for ILambda_172_0, Initial residual = 1, Final residual = 6.18951636998e-75, No Iterations 3
DILUPBiCGStab:  Solving for ILambda_173_0, Initial residual = 1, Final residual = 1.55787499785e-74, No Iterations 3
DILUPBiCGStab:  Solving for ILambda_174_0, Initial residual = 1, Final residual = 6.78700761149e-74, No Iterations 3
DILUPBiCGStab:  Solving for ILambda_175_0, Initial residual = 1, Final residual = 2.18102582064e-74, No Iterations 3
DILUPBiCGStab:  Solving for ILambda_176_0, Initial residual = 1, Final residual = 6.80185246916e-74, No Iterations 3
DILUPBiCGStab:  Solving for ILambda_177_0, Initial residual = 1, Final residual = 8.0638811384e-75, No Iterations 3
DILUPBiCGStab:  Solving for ILambda_178_0, Initial residual = 1, Final residual = 6.73694150669e-75, No Iterations 3
DILUPBiCGStab:  Solving for ILambda_179_0, Initial residual = 1, Final residual = 1.47266555208e-74, No Iterations 3
DILUPBiCGStab:  Solving for ILambda_180_0, Initial residual = 1, Final residual = 4.15246251915e-62, No Iterations 27
DILUPBiCGStab:  Solving for ILambda_181_0, Initial residual = 1, Final residual = 8.2481588909e-62, No Iterations 35
DILUPBiCGStab:  Solving for ILambda_182_0, Initial residual = 1, Final residual = 1.37911878796e-61, No Iterations 39
DILUPBiCGStab:  Solving for ILambda_183_0, Initial residual = 1, Final residual = 5.87673969833e-61, No Iterations 43
DILUPBiCGStab:  Solving for ILambda_184_0, Initial residual = 1, Final residual = 2.33386475878e-61, No Iterations 44
DILUPBiCGStab:  Solving for ILambda_185_0, Initial residual = 1, Final residual = 3.22096297877e-61, No Iterations 43
DILUPBiCGStab:  Solving for ILambda_186_0, Initial residual = 1, Final residual = 4.88555392558e-63, No Iterations 44
DILUPBiCGStab:  Solving for ILambda_187_0, Initial residual = 1, Final residual = 8.14969802508e-61, No Iterations 43
DILUPBiCGStab:  Solving for ILambda_188_0, Initial residual = 1, Final residual = 9.43123557547e-61, No Iterations 42
DILUPBiCGStab:  Solving for ILambda_189_0, Initial residual = 1, Final residual = 8.65147243834e-62, No Iterations 39
DILUPBiCGStab:  Solving for ILambda_190_0, Initial residual = 1, Final residual = 1.36656468583e-61, No Iterations 35
DILUPBiCGStab:  Solving for ILambda_191_0, Initial residual = 1, Final residual = 1.23886566956e-61, No Iterations 27
DILUPBiCGStab:  Solving for ILambda_192_0, Initial residual = 1, Final residual = 4.93156601202e-63, No Iterations 20
DILUPBiCGStab:  Solving for ILambda_193_0, Initial residual = 1, Final residual = 3.62841219815e-61, No Iterations 18
DILUPBiCGStab:  Solving for ILambda_194_0, Initial residual = 1, Final residual = 2.88583231214e-62, No Iterations 14
DILUPBiCGStab:  Solving for ILambda_195_0, Initial residual = 1, Final residual = 6.70886356585e-63, No Iterations 21
DILUPBiCGStab:  Solving for ILambda_196_0, Initial residual = 1, Final residual = 2.21472683337e-63, No Iterations 16
DILUPBiCGStab:  Solving for ILambda_197_0, Initial residual = 1, Final residual = 3.88303884405e-64, No Iterations 18
DILUPBiCGStab:  Solving for ILambda_198_0, Initial residual = 1, Final residual = 3.75938634573e-61, No Iterations 16
DILUPBiCGStab:  Solving for ILambda_199_0, Initial residual = 1, Final residual = 3.05163569209e-61, No Iterations 17
DILUPBiCGStab:  Solving for ILambda_200_0, Initial residual = 1, Final residual = 1.98444139915e-61, No Iterations 17
DILUPBiCGStab:  Solving for ILambda_201_0, Initial residual = 1, Final residual = 2.70559852742e-62, No Iterations 16
DILUPBiCGStab:  Solving for ILambda_202_0, Initial residual = 1, Final residual = 3.4379918618e-63, No Iterations 19
DILUPBiCGStab:  Solving for ILambda_203_0, Initial residual = 1, Final residual = 1.2261327874e-64, No Iterations 15
DILUPBiCGStab:  Solving for ILambda_204_0, Initial residual = 1, Final residual = 3.72739567388e-61, No Iterations 27
DILUPBiCGStab:  Solving for ILambda_205_0, Initial residual = 1, Final residual = 3.75988307842e-61, No Iterations 35
DILUPBiCGStab:  Solving for ILambda_206_0, Initial residual = 1, Final residual = 9.62183036846e-61, No Iterations 39
DILUPBiCGStab:  Solving for ILambda_207_0, Initial residual = 1, Final residual = 2.5638280283e-61, No Iterations 42
DILUPBiCGStab:  Solving for ILambda_208_0, Initial residual = 1, Final residual = 3.23459687899e-61, No Iterations 42
DILUPBiCGStab:  Solving for ILambda_209_0, Initial residual = 1, Final residual = 3.72898377696e-62, No Iterations 42
DILUPBiCGStab:  Solving for ILambda_210_0, Initial residual = 1, Final residual = 7.73033757643e-61, No Iterations 43
DILUPBiCGStab:  Solving for ILambda_211_0, Initial residual = 1, Final residual = 2.72075575445e-61, No Iterations 43
DILUPBiCGStab:  Solving for ILambda_212_0, Initial residual = 1, Final residual = 7.52417274662e-61, No Iterations 41
DILUPBiCGStab:  Solving for ILambda_213_0, Initial residual = 1, Final residual = 4.35983983944e-61, No Iterations 40
DILUPBiCGStab:  Solving for ILambda_214_0, Initial residual = 1, Final residual = 6.77768444779e-62, No Iterations 35
DILUPBiCGStab:  Solving for ILambda_215_0, Initial residual = 1, Final residual = 2.70569362694e-62, No Iterations 27
DILUPBiCGStab:  Solving for ILambda_216_0, Initial residual = 1, Final residual = 4.95667655334e-76, No Iterations 3
DILUPBiCGStab:  Solving for ILambda_217_0, Initial residual = 1, Final residual = 6.53450950464e-61, No Iterations 2
DILUPBiCGStab:  Solving for ILambda_218_0, Initial residual = 1, Final residual = 1.47605347793e-74, No Iterations 3
DILUPBiCGStab:  Solving for ILambda_219_0, Initial residual = 1, Final residual = 6.06482053041e-61, No Iterations 2
DILUPBiCGStab:  Solving for ILambda_220_0, Initial residual = 1, Final residual = 2.53783819523e-75, No Iterations 3
DILUPBiCGStab:  Solving for ILambda_221_0, Initial residual = 1, Final residual = 1.34769021448e-75, No Iterations 3
DILUPBiCGStab:  Solving for ILambda_222_0, Initial residual = 1, Final residual = 8.09145816683e-75, No Iterations 3
DILUPBiCGStab:  Solving for ILambda_223_0, Initial residual = 1, Final residual = 2.98729297708e-75, No Iterations 3
DILUPBiCGStab:  Solving for ILambda_224_0, Initial residual = 1, Final residual = 3.30100990589e-75, No Iterations 3
DILUPBiCGStab:  Solving for ILambda_225_0, Initial residual = 1, Final residual = 6.44571106758e-75, No Iterations 3
DILUPBiCGStab:  Solving for ILambda_226_0, Initial residual = 1, Final residual = 5.51000351669e-75, No Iterations 3
DILUPBiCGStab:  Solving for ILambda_227_0, Initial residual = 1, Final residual = 4.01349097032e-74, No Iterations 3
DILUPBiCGStab:  Solving for ILambda_228_0, Initial residual = 1, Final residual = 3.95522169879e-62, No Iterations 27
DILUPBiCGStab:  Solving for ILambda_229_0, Initial residual = 1, Final residual = 6.03329749943e-62, No Iterations 35
DILUPBiCGStab:  Solving for ILambda_230_0, Initial residual = 1, Final residual = 4.92991972982e-62, No Iterations 40
DILUPBiCGStab:  Solving for ILambda_231_0, Initial residual = 1, Final residual = 2.81500010816e-61, No Iterations 41
DILUPBiCGStab:  Solving for ILambda_232_0, Initial residual = 1, Final residual = 1.19020415749e-61, No Iterations 44
DILUPBiCGStab:  Solving for ILambda_233_0, Initial residual = 1, Final residual = 3.78446093985e-61, No Iterations 42
DILUPBiCGStab:  Solving for ILambda_234_0, Initial residual = 1, Final residual = 9.70159549233e-61, No Iterations 43
DILUPBiCGStab:  Solving for ILambda_235_0, Initial residual = 1, Final residual = 8.81477519168e-61, No Iterations 42
DILUPBiCGStab:  Solving for ILambda_236_0, Initial residual = 1, Final residual = 5.04590413685e-61, No Iterations 42
DILUPBiCGStab:  Solving for ILambda_237_0, Initial residual = 1, Final residual = 3.40744186004e-61, No Iterations 39
DILUPBiCGStab:  Solving for ILambda_238_0, Initial residual = 1, Final residual = 7.40972278467e-61, No Iterations 36
DILUPBiCGStab:  Solving for ILambda_239_0, Initial residual = 1, Final residual = 3.35850904287e-61, No Iterations 27
DILUPBiCGStab:  Solving for ILambda_240_0, Initial residual = 1, Final residual = 1.78358302981e-63, No Iterations 17
DILUPBiCGStab:  Solving for ILambda_241_0, Initial residual = 1, Final residual = 6.32193935111e-62, No Iterations 16
DILUPBiCGStab:  Solving for ILambda_242_0, Initial residual = 1, Final residual = 6.31622820989e-61, No Iterations 15
DILUPBiCGStab:  Solving for ILambda_243_0, Initial residual = 1, Final residual = 2.05279769305e-63, No Iterations 22
DILUPBiCGStab:  Solving for ILambda_244_0, Initial residual = 1, Final residual = 3.47255891526e-61, No Iterations 22
DILUPBiCGStab:  Solving for ILambda_245_0, Initial residual = 1, Final residual = 2.70965519658e-62, No Iterations 19
DILUPBiCGStab:  Solving for ILambda_246_0, Initial residual = 1, Final residual = 2.02085171208e-62, No Iterations 17
DILUPBiCGStab:  Solving for ILambda_247_0, Initial residual = 1, Final residual = 1.72892002354e-61, No Iterations 21
DILUPBiCGStab:  Solving for ILambda_248_0, Initial residual = 1, Final residual = 2.24979978908e-63, No Iterations 14
DILUPBiCGStab:  Solving for ILambda_249_0, Initial residual = 1, Final residual = 8.46016437905e-63, No Iterations 17
DILUPBiCGStab:  Solving for ILambda_250_0, Initial residual = 1, Final residual = 1.3157032921e-61, No Iterations 17
DILUPBiCGStab:  Solving for ILambda_251_0, Initial residual = 1, Final residual = 6.96969831736e-62, No Iterations 16
DILUPBiCGStab:  Solving for ILambda_252_0, Initial residual = 1, Final residual = 2.57685470533e-61, No Iterations 25
DILUPBiCGStab:  Solving for ILambda_253_0, Initial residual = 1, Final residual = 4.74885981794e-62, No Iterations 35
DILUPBiCGStab:  Solving for ILambda_254_0, Initial residual = 1, Final residual = 3.88753425543e-61, No Iterations 39
DILUPBiCGStab:  Solving for ILambda_255_0, Initial residual = 1, Final residual = 4.31864062731e-61, No Iterations 40
DILUPBiCGStab:  Solving for ILambda_256_0, Initial residual = 1, Final residual = 1.44958255059e-61, No Iterations 40
DILUPBiCGStab:  Solving for ILambda_257_0, Initial residual = 1, Final residual = 2.00956557682e-61, No Iterations 41
DILUPBiCGStab:  Solving for ILambda_258_0, Initial residual = 1, Final residual = 6.87192633359e-61, No Iterations 40
DILUPBiCGStab:  Solving for ILambda_259_0, Initial residual = 1, Final residual = 8.43636740024e-61, No Iterations 40
DILUPBiCGStab:  Solving for ILambda_260_0, Initial residual = 1, Final residual = 5.47041651041e-62, No Iterations 41
DILUPBiCGStab:  Solving for ILambda_261_0, Initial residual = 1, Final residual = 8.96743518235e-62, No Iterations 38
DILUPBiCGStab:  Solving for ILambda_262_0, Initial residual = 1, Final residual = 6.7785020063e-61, No Iterations 34
DILUPBiCGStab:  Solving for ILambda_263_0, Initial residual = 1, Final residual = 3.5430156931e-61, No Iterations 25
DILUPBiCGStab:  Solving for ILambda_264_0, Initial residual = 1, Final residual = 1.50741971681e-75, No Iterations 3
DILUPBiCGStab:  Solving for ILambda_265_0, Initial residual = 1, Final residual = 1.65742068671e-61, No Iterations 2
DILUPBiCGStab:  Solving for ILambda_266_0, Initial residual = 1, Final residual = 6.28894430794e-61, No Iterations 2
DILUPBiCGStab:  Solving for ILambda_267_0, Initial residual = 1, Final residual = 3.01218168709e-75, No Iterations 3
DILUPBiCGStab:  Solving for ILambda_268_0, Initial residual = 1, Final residual = 2.49540792129e-75, No Iterations 3
DILUPBiCGStab:  Solving for ILambda_269_0, Initial residual = 1, Final residual = 8.25232271866e-61, No Iterations 2
DILUPBiCGStab:  Solving for ILambda_270_0, Initial residual = 1, Final residual = 9.09501624144e-61, No Iterations 2
DILUPBiCGStab:  Solving for ILambda_271_0, Initial residual = 1, Final residual = 6.6432770081e-75, No Iterations 3
DILUPBiCGStab:  Solving for ILambda_272_0, Initial residual = 1, Final residual = 8.67425485776e-62, No Iterations 2
DILUPBiCGStab:  Solving for ILambda_273_0, Initial residual = 1, Final residual = 2.01155709877e-75, No Iterations 3
DILUPBiCGStab:  Solving for ILambda_274_0, Initial residual = 1, Final residual = 6.15946660016e-61, No Iterations 2
DILUPBiCGStab:  Solving for ILambda_275_0, Initial residual = 1, Final residual = 1.55359317252e-75, No Iterations 3
DILUPBiCGStab:  Solving for ILambda_276_0, Initial residual = 1, Final residual = 1.62188891452e-62, No Iterations 26
DILUPBiCGStab:  Solving for ILambda_277_0, Initial residual = 1, Final residual = 5.01014338659e-61, No Iterations 33
DILUPBiCGStab:  Solving for ILambda_278_0, Initial residual = 1, Final residual = 5.43997705013e-61, No Iterations 38
DILUPBiCGStab:  Solving for ILambda_279_0, Initial residual = 1, Final residual = 3.05549529968e-61, No Iterations 39
DILUPBiCGStab:  Solving for ILambda_280_0, Initial residual = 1, Final residual = 5.81645364813e-61, No Iterations 40
DILUPBiCGStab:  Solving for ILambda_281_0, Initial residual = 1, Final residual = 2.39413572633e-61, No Iterations 41
DILUPBiCGStab:  Solving for ILambda_282_0, Initial residual = 1, Final residual = 3.77014722411e-62, No Iterations 40
DILUPBiCGStab:  Solving for ILambda_283_0, Initial residual = 1, Final residual = 3.89317415718e-61, No Iterations 40
DILUPBiCGStab:  Solving for ILambda_284_0, Initial residual = 1, Final residual = 3.57887167545e-61, No Iterations 40
DILUPBiCGStab:  Solving for ILambda_285_0, Initial residual = 1, Final residual = 1.42437660075e-61, No Iterations 39
[...]
DILUPBiCGStab:  Solving for ILambda_140_0, Initial residual = 3.3542097174e-16, Final residual = 5.59375550961e-61, No Iterations 27
DILUPBiCGStab:  Solving for ILambda_141_0, Initial residual = 3.593035682e-16, Final residual = 8.27030279999e-61, No Iterations 26
DILUPBiCGStab:  Solving for ILambda_142_0, Initial residual = 2.63369360489e-16, Final residual = 2.95042837692e-61, No Iterations 23
DILUPBiCGStab:  Solving for ILambda_143_0, Initial residual = 2.80044348419e-16, Final residual = 6.71570443783e-61, No Iterations 20
DILUPBiCGStab:  Solving for ILambda_144_0, Initial residual = 2.78473930035e-16, Final residual = 3.74431869592e-63, No Iterations 8
DILUPBiCGStab:  Solving for ILambda_145_0, Initial residual = 2.59151665401e-16, Final residual = 3.0869094005e-61, No Iterations 8
DILUPBiCGStab:  Solving for ILambda_146_0, Initial residual = 2.89997129864e-16, Final residual = 3.86689850823e-61, No Iterations 8
DILUPBiCGStab:  Solving for ILambda_147_0, Initial residual = 3.12394967125e-16, Final residual = 2.77143653917e-61, No Iterations 9
DILUPBiCGStab:  Solving for ILambda_148_0, Initial residual = 2.45629751265e-16, Final residual = 2.32028987999e-61, No Iterations 10
DILUPBiCGStab:  Solving for ILambda_149_0, Initial residual = 2.35448545327e-16, Final residual = 1.4557717465e-61, No Iterations 8
DILUPBiCGStab:  Solving for ILambda_150_0, Initial residual = 2.87847492232e-16, Final residual = 6.23580003963e-62, No Iterations 8
DILUPBiCGStab:  Solving for ILambda_151_0, Initial residual = 2.47938470239e-16, Final residual = 5.65753177455e-62, No Iterations 9
DILUPBiCGStab:  Solving for ILambda_152_0, Initial residual = 3.08601488951e-16, Final residual = 2.82260268559e-63, No Iterations 8
DILUPBiCGStab:  Solving for ILambda_153_0, Initial residual = 3.27107951828e-16, Final residual = 2.21119905284e-64, No Iterations 8
DILUPBiCGStab:  Solving for ILambda_154_0, Initial residual = 2.84392571788e-16, Final residual = 1.23529135993e-61, No Iterations 8
DILUPBiCGStab:  Solving for ILambda_155_0, Initial residual = 2.69871300498e-16, Final residual = 8.79073056846e-61, No Iterations 9
DILUPBiCGStab:  Solving for ILambda_156_0, Initial residual = 2.65151887329e-16, Final residual = 1.55215135207e-61, No Iterations 19
DILUPBiCGStab:  Solving for ILambda_157_0, Initial residual = 2.77890631778e-16, Final residual = 5.98249860967e-61, No Iterations 23
DILUPBiCGStab:  Solving for ILambda_158_0, Initial residual = 2.5652478374e-16, Final residual = 2.84469500059e-61, No Iterations 25
DILUPBiCGStab:  Solving for ILambda_159_0, Initial residual = 3.15698964244e-16, Final residual = 9.70080091849e-61, No Iterations 28
DILUPBiCGStab:  Solving for ILambda_160_0, Initial residual = 2.68994313609e-16, Final residual = 8.27177527977e-62, No Iterations 28
DILUPBiCGStab:  Solving for ILambda_161_0, Initial residual = 1.821114264e-16, Final residual = 1.55374630784e-61, No Iterations 30
DILUPBiCGStab:  Solving for ILambda_162_0, Initial residual = 3.66629467986e-16, Final residual = 1.17769032529e-61, No Iterations 33
DILUPBiCGStab:  Solving for ILambda_163_0, Initial residual = 2.79958689234e-16, Final residual = 2.90835440478e-61, No Iterations 28
DILUPBiCGStab:  Solving for ILambda_164_0, Initial residual = 3.37068891291e-16, Final residual = 5.72438244278e-61, No Iterations 28
DILUPBiCGStab:  Solving for ILambda_165_0, Initial residual = 2.9856712733e-16, Final residual = 5.67090680353e-61, No Iterations 28
DILUPBiCGStab:  Solving for ILambda_166_0, Initial residual = 3.06064345484e-16, Final residual = 1.72805333783e-62, No Iterations 24
DILUPBiCGStab:  Solving for ILambda_167_0, Initial residual = 2.48281106978e-16, Final residual = 1.53573688471e-62, No Iterations 19
DILUPBiCGStab:  Solving for ILambda_168_0, Initial residual = 2.61721440938e-16, Final residual = 2.97133468424e-62, No Iterations 2
DILUPBiCGStab:  Solving for ILambda_169_0, Initial residual = 2.91755182652e-16, Final residual = 1.09852048747e-61, No Iterations 2
DILUPBiCGStab:  Solving for ILambda_170_0, Initial residual = 2.84596522227e-16, Final residual = 1.7779208265e-61, No Iterations 2
DILUPBiCGStab:  Solving for ILambda_171_0, Initial residual = 3.40177095988e-16, Final residual = 2.03501567846e-61, No Iterations 2
DILUPBiCGStab:  Solving for ILambda_172_0, Initial residual = 2.93125729605e-16, Final residual = 7.92648490125e-62, No Iterations 2
DILUPBiCGStab:  Solving for ILambda_173_0, Initial residual = 2.18149469052e-16, Final residual = 7.38897492604e-63, No Iterations 2
DILUPBiCGStab:  Solving for ILambda_174_0, Initial residual = 2.40751256753e-16, Final residual = 1.80283074743e-62, No Iterations 2
DILUPBiCGStab:  Solving for ILambda_175_0, Initial residual = 2.29256609985e-16, Final residual = 1.0438162296e-62, No Iterations 2
DILUPBiCGStab:  Solving for ILambda_176_0, Initial residual = 2.5218063938e-16, Final residual = 4.57007650929e-63, No Iterations 2
DILUPBiCGStab:  Solving for ILambda_177_0, Initial residual = 2.50569430908e-16, Final residual = 1.43890422204e-62, No Iterations 2
DILUPBiCGStab:  Solving for ILambda_178_0, Initial residual = 2.63940421719e-16, Final residual = 1.21363157054e-62, No Iterations 2
DILUPBiCGStab:  Solving for ILambda_179_0, Initial residual = 2.45491064966e-16, Final residual = 1.6772435753e-62, No Iterations 2
DILUPBiCGStab:  Solving for ILambda_180_0, Initial residual = 2.68488516519e-16, Final residual = 1.56463906066e-61, No Iterations 18
DILUPBiCGStab:  Solving for ILambda_181_0, Initial residual = 2.69088130811e-16, Final residual = 5.57466401427e-62, No Iterations 24
DILUPBiCGStab:  Solving for ILambda_182_0, Initial residual = 2.53159601489e-16, Final residual = 4.97351190385e-61, No Iterations 26
DILUPBiCGStab:  Solving for ILambda_183_0, Initial residual = 3.79090839837e-16, Final residual = 7.71320681873e-61, No Iterations 26
DILUPBiCGStab:  Solving for ILambda_184_0, Initial residual = 3.17673204498e-16, Final residual = 2.92029732952e-61, No Iterations 28
DILUPBiCGStab:  Solving for ILambda_185_0, Initial residual = 1.93067644008e-16, Final residual = 8.62519697356e-61, No Iterations 30
DILUPBiCGStab:  Solving for ILambda_186_0, Initial residual = 2.88855007403e-16, Final residual = 4.32593997789e-61, No Iterations 30
DILUPBiCGStab:  Solving for ILambda_187_0, Initial residual = 2.58250204458e-16, Final residual = 1.03189846192e-61, No Iterations 28
DILUPBiCGStab:  Solving for ILambda_188_0, Initial residual = 3.78164904841e-16, Final residual = 2.12563677101e-61, No Iterations 27
DILUPBiCGStab:  Solving for ILambda_189_0, Initial residual = 3.31158407555e-16, Final residual = 4.01660852686e-61, No Iterations 25
DILUPBiCGStab:  Solving for ILambda_190_0, Initial residual = 2.72861213941e-16, Final residual = 2.11356093587e-61, No Iterations 23
DILUPBiCGStab:  Solving for ILambda_191_0, Initial residual = 2.60734320811e-16, Final residual = 9.82349190932e-62, No Iterations 19
DILUPBiCGStab:  Solving for ILambda_192_0, Initial residual = 7.13765352968e-17, Final residual = 9.83885673328e-62, No Iterations 8
DILUPBiCGStab:  Solving for ILambda_193_0, Initial residual = 7.62040421988e-17, Final residual = 2.098544072e-61, No Iterations 9
DILUPBiCGStab:  Solving for ILambda_194_0, Initial residual = 6.70323909364e-17, Final residual = 7.12345177779e-61, No Iterations 7
DILUPBiCGStab:  Solving for ILambda_195_0, Initial residual = 7.6634377626e-17, Final residual = 9.48789684665e-61, No Iterations 8
DILUPBiCGStab:  Solving for ILambda_196_0, Initial residual = 4.76795337363e-17, Final residual = 2.30485215187e-62, No Iterations 8
DILUPBiCGStab:  Solving for ILambda_197_0, Initial residual = 5.52828061192e-17, Final residual = 7.66232504253e-61, No Iterations 9
DILUPBiCGStab:  Solving for ILambda_198_0, Initial residual = 5.09631358115e-17, Final residual = 3.69457831073e-63, No Iterations 8
DILUPBiCGStab:  Solving for ILambda_199_0, Initial residual = 5.49360903722e-17, Final residual = 1.68426807915e-61, No Iterations 7
DILUPBiCGStab:  Solving for ILambda_200_0, Initial residual = 9.30727830463e-17, Final residual = 4.00231038157e-62, No Iterations 7
DILUPBiCGStab:  Solving for ILambda_201_0, Initial residual = 8.06012136734e-17, Final residual = 1.57556667673e-62, No Iterations 8
DILUPBiCGStab:  Solving for ILambda_202_0, Initial residual = 8.47087755241e-17, Final residual = 1.34306045918e-61, No Iterations 7
DILUPBiCGStab:  Solving for ILambda_203_0, Initial residual = 7.67608268985e-17, Final residual = 3.32302377718e-62, No Iterations 8
DILUPBiCGStab:  Solving for ILambda_204_0, Initial residual = 6.54823675965e-17, Final residual = 8.5924534541e-62, No Iterations 19
DILUPBiCGStab:  Solving for ILambda_205_0, Initial residual = 8.10519441446e-17, Final residual = 7.33426475878e-61, No Iterations 22
DILUPBiCGStab:  Solving for ILambda_206_0, Initial residual = 7.06117211488e-17, Final residual = 3.32872968906e-61, No Iterations 27
DILUPBiCGStab:  Solving for ILambda_207_0, Initial residual = 7.53739639102e-17, Final residual = 7.19598396315e-61, No Iterations 27
DILUPBiCGStab:  Solving for ILambda_208_0, Initial residual = 4.8226120914e-17, Final residual = 1.14210223748e-61, No Iterations 31
DILUPBiCGStab:  Solving for ILambda_209_0, Initial residual = 4.79915779087e-17, Final residual = 4.80751202675e-61, No Iterations 28
DILUPBiCGStab:  Solving for ILambda_210_0, Initial residual = 5.14036687608e-17, Final residual = 9.33511675189e-63, No Iterations 30
DILUPBiCGStab:  Solving for ILambda_211_0, Initial residual = 7.00161858656e-17, Final residual = 2.82493120881e-61, No Iterations 28
DILUPBiCGStab:  Solving for ILambda_212_0, Initial residual = 1.048855925e-16, Final residual = 7.1743649074e-62, No Iterations 28
DILUPBiCGStab:  Solving for ILambda_213_0, Initial residual = 8.66095936199e-17, Final residual = 1.10466099657e-61, No Iterations 26
DILUPBiCGStab:  Solving for ILambda_214_0, Initial residual = 8.82350786223e-17, Final residual = 1.57879154344e-61, No Iterations 22
DILUPBiCGStab:  Solving for ILambda_215_0, Initial residual = 8.05665420987e-17, Final residual = 5.81843228567e-61, No Iterations 20
DILUPBiCGStab:  Solving for ILambda_216_0, Initial residual = 8.45292991374e-17, Final residual = 4.91643194638e-63, No Iterations 2
DILUPBiCGStab:  Solving for ILambda_217_0, Initial residual = 9.08395257342e-17, Final residual = 2.5921892505e-63, No Iterations 2
DILUPBiCGStab:  Solving for ILambda_218_0, Initial residual = 9.2110136972e-17, Final residual = 8.42788663023e-63, No Iterations 2
DILUPBiCGStab:  Solving for ILambda_219_0, Initial residual = 9.79839096284e-17, Final residual = 4.97944935822e-63, No Iterations 2
DILUPBiCGStab:  Solving for ILambda_220_0, Initial residual = 5.66186814977e-17, Final residual = 1.13250745434e-62, No Iterations 2
DILUPBiCGStab:  Solving for ILambda_221_0, Initial residual = 5.12507059312e-17, Final residual = 3.54196608491e-63, No Iterations 2
DILUPBiCGStab:  Solving for ILambda_222_0, Initial residual = 4.69861022421e-17, Final residual = 1.46795493475e-63, No Iterations 2
DILUPBiCGStab:  Solving for ILambda_223_0, Initial residual = 4.79711828647e-17, Final residual = 4.73997813558e-64, No Iterations 2
DILUPBiCGStab:  Solving for ILambda_224_0, Initial residual = 6.74688448768e-17, Final residual = 1.36881113131e-63, No Iterations 2
DILUPBiCGStab:  Solving for ILambda_225_0, Initial residual = 6.45972226892e-17, Final residual = 1.23503126906e-63, No Iterations 2
DILUPBiCGStab:  Solving for ILambda_226_0, Initial residual = 7.45234905776e-17, Final residual = 3.84929651488e-63, No Iterations 2
DILUPBiCGStab:  Solving for ILambda_227_0, Initial residual = 6.88516288563e-17, Final residual = 1.77370274839e-63, No Iterations 2
DILUPBiCGStab:  Solving for ILambda_228_0, Initial residual = 7.90348742984e-17, Final residual = 5.32318795341e-61, No Iterations 19
DILUPBiCGStab:  Solving for ILambda_229_0, Initial residual = 8.64647888078e-17, Final residual = 4.8058307996e-62, No Iterations 23
DILUPBiCGStab:  Solving for ILambda_230_0, Initial residual = 9.62992789985e-17, Final residual = 8.39056605347e-61, No Iterations 27
DILUPBiCGStab:  Solving for ILambda_231_0, Initial residual = 1.07871426933e-16, Final residual = 4.05268209351e-61, No Iterations 26
DILUPBiCGStab:  Solving for ILambda_232_0, Initial residual = 7.23983269985e-17, Final residual = 1.86188394889e-61, No Iterations 31
DILUPBiCGStab:  Solving for ILambda_233_0, Initial residual = 4.88706043027e-17, Final residual = 6.1018657098e-61, No Iterations 30
DILUPBiCGStab:  Solving for ILambda_234_0, Initial residual = 6.17439560412e-17, Final residual = 3.24265087231e-61, No Iterations 28
DILUPBiCGStab:  Solving for ILambda_235_0, Initial residual = 1.03078591606e-16, Final residual = 2.56826013591e-61, No Iterations 29
DILUPBiCGStab:  Solving for ILambda_236_0, Initial residual = 8.17861657267e-17, Final residual = 5.95971019161e-61, No Iterations 27
DILUPBiCGStab:  Solving for ILambda_237_0, Initial residual = 6.15644796545e-17, Final residual = 7.88726059804e-62, No Iterations 25
DILUPBiCGStab:  Solving for ILambda_238_0, Initial residual = 7.74644559146e-17, Final residual = 7.76422495809e-61, No Iterations 24
DILUPBiCGStab:  Solving for ILambda_239_0, Initial residual = 7.14621944814e-17, Final residual = 7.72527608563e-62, No Iterations 19
DILUPBiCGStab:  Solving for ILambda_240_0, Initial residual = 1.64608399686e-17, Final residual = 1.57935347069e-62, No Iterations 7
DILUPBiCGStab:  Solving for ILambda_241_0, Initial residual = 1.92947313248e-17, Final residual = 3.08063626021e-61, No Iterations 8
DILUPBiCGStab:  Solving for ILambda_242_0, Initial residual = 3.18448216168e-17, Final residual = 4.00253602852e-61, No Iterations 7
DILUPBiCGStab:  Solving for ILambda_243_0, Initial residual = 2.86897083184e-17, Final residual = 7.58035388832e-61, No Iterations 8
DILUPBiCGStab:  Solving for ILambda_244_0, Initial residual = 3.10575729205e-17, Final residual = 4.47283676452e-65, No Iterations 7
DILUPBiCGStab:  Solving for ILambda_245_0, Initial residual = 3.19722906415e-17, Final residual = 2.32618978188e-61, No Iterations 7
DILUPBiCGStab:  Solving for ILambda_246_0, Initial residual = 3.04120697796e-17, Final residual = 5.77903639786e-61, No Iterations 8
DILUPBiCGStab:  Solving for ILambda_247_0, Initial residual = 3.1643930434e-17, Final residual = 3.334855146e-61, No Iterations 8
DILUPBiCGStab:  Solving for ILambda_248_0, Initial residual = 3.06649683246e-17, Final residual = 1.18825912128e-62, No Iterations 8
DILUPBiCGStab:  Solving for ILambda_249_0, Initial residual = 3.12656023688e-17, Final residual = 3.86142558059e-62, No Iterations 8
DILUPBiCGStab:  Solving for ILambda_250_0, Initial residual = 2.14494677177e-17, Final residual = 1.24774508002e-62, No Iterations 8
DILUPBiCGStab:  Solving for ILambda_251_0, Initial residual = 1.86696232279e-17, Final residual = 4.92385672527e-61, No Iterations 8
DILUPBiCGStab:  Solving for ILambda_252_0, Initial residual = 1.52126632791e-17, Final residual = 2.07307557981e-61, No Iterations 18
DILUPBiCGStab:  Solving for ILambda_253_0, Initial residual = 1.76753648356e-17, Final residual = 1.54133878951e-61, No Iterations 23
DILUPBiCGStab:  Solving for ILambda_254_0, Initial residual = 3.14277429681e-17, Final residual = 6.70906001895e-61, No Iterations 25
DILUPBiCGStab:  Solving for ILambda_255_0, Initial residual = 2.99491022821e-17, Final residual = 7.38127813246e-61, No Iterations 27
DILUPBiCGStab:  Solving for ILambda_256_0, Initial residual = 3.44033798798e-17, Final residual = 5.82938427242e-62, No Iterations 28
DILUPBiCGStab:  Solving for ILambda_257_0, Initial residual = 3.33102055243e-17, Final residual = 1.6100936512e-61, No Iterations 26
DILUPBiCGStab:  Solving for ILambda_258_0, Initial residual = 3.46919697517e-17, Final residual = 2.5950109381e-61, No Iterations 28
DILUPBiCGStab:  Solving for ILambda_259_0, Initial residual = 3.27422035504e-17, Final residual = 5.32394060489e-63, No Iterations 28
DILUPBiCGStab:  Solving for ILambda_260_0, Initial residual = 3.63653831074e-17, Final residual = 8.96755386538e-61, No Iterations 27
DILUPBiCGStab:  Solving for ILambda_261_0, Initial residual = 3.40903159553e-17, Final residual = 2.02930112525e-61, No Iterations 27
DILUPBiCGStab:  Solving for ILambda_262_0, Initial residual = 2.05306709879e-17, Final residual = 5.90712571661e-61, No Iterations 24
DILUPBiCGStab:  Solving for ILambda_263_0, Initial residual = 1.94823657291e-17, Final residual = 6.41152094153e-63, No Iterations 19
DILUPBiCGStab:  Solving for ILambda_264_0, Initial residual = 2.01655997013e-17, Final residual = 1.01641776684e-63, No Iterations 2
DILUPBiCGStab:  Solving for ILambda_265_0, Initial residual = 2.34420635112e-17, Final residual = 2.37906034123e-64, No Iterations 2
DILUPBiCGStab:  Solving for ILambda_266_0, Initial residual = 3.25678259247e-17, Final residual = 5.35807524064e-63, No Iterations 2
DILUPBiCGStab:  Solving for ILambda_267_0, Initial residual = 3.1798932768e-17, Final residual = 1.09476354632e-63, No Iterations 2
DILUPBiCGStab:  Solving for ILambda_268_0, Initial residual = 3.5696425666e-17, Final residual = 2.39868304982e-63, No Iterations 2
DILUPBiCGStab:  Solving for ILambda_269_0, Initial residual = 3.19049869965e-17, Final residual = 1.21013264138e-63, No Iterations 2
DILUPBiCGStab:  Solving for ILambda_270_0, Initial residual = 3.09606964618e-17, Final residual = 4.91592364199e-64, No Iterations 2
DILUPBiCGStab:  Solving for ILambda_271_0, Initial residual = 2.9447384201e-17, Final residual = 3.62885245586e-63, No Iterations 2
DILUPBiCGStab:  Solving for ILambda_272_0, Initial residual = 2.84531258087e-17, Final residual = 3.20757882188e-64, No Iterations 2
DILUPBiCGStab:  Solving for ILambda_273_0, Initial residual = 3.01663095001e-17, Final residual = 6.71082564623e-64, No Iterations 2
DILUPBiCGStab:  Solving for ILambda_274_0, Initial residual = 1.87848552262e-17, Final residual = 6.12151238552e-63, No Iterations 2
DILUPBiCGStab:  Solving for ILambda_275_0, Initial residual = 1.63476474747e-17, Final residual = 3.15654376345e-64, No Iterations 2
DILUPBiCGStab:  Solving for ILambda_276_0, Initial residual = 2.0587777111e-17, Final residual = 2.49481058355e-61, No Iterations 18
DILUPBiCGStab:  Solving for ILambda_277_0, Initial residual = 2.35593350139e-17, Final residual = 8.44816923233e-61, No Iterations 23
DILUPBiCGStab:  Solving for ILambda_278_0, Initial residual = 3.41158097602e-17, Final residual = 1.01634863913e-61, No Iterations 26
DILUPBiCGStab:  Solving for ILambda_279_0, Initial residual = 3.59676797505e-17, Final residual = 5.8633117959e-61, No Iterations 27
DILUPBiCGStab:  Solving for ILambda_280_0, Initial residual = 3.46012118061e-17, Final residual = 5.62063105592e-61, No Iterations 27
DILUPBiCGStab:  Solving for ILambda_281_0, Initial residual = 3.40230123102e-17, Final residual = 1.13026287824e-61, No Iterations 29
DILUPBiCGStab:  Solving for ILambda_282_0, Initial residual = 3.50080929328e-17, Final residual = 6.93005904423e-62, No Iterations 29
DILUPBiCGStab:  Solving for ILambda_283_0, Initial residual = 3.289516638e-17, Final residual = 2.44855799764e-61, No Iterations 28
DILUPBiCGStab:  Solving for ILambda_284_0, Initial residual = 3.48724658906e-17, Final residual = 1.1027438662e-61, No Iterations 25
DILUPBiCGStab:  Solving for ILambda_285_0, Initial residual = 3.09341829047e-17, Final residual = 4.6929864772e-61, No Iterations 25
DILUPBiCGStab:  Solving for ILambda_286_0, Initial residual = 1.85686677604e-17, Final residual = 6.34948890307e-64, No Iterations 24
DILUPBiCGStab:  Solving for ILambda_287_0, Initial residual = 1.67269952921e-17, Final residual = 5.76577241073e-63, No Iterations 19
min/max(T) = 1000, 1000
ExecutionTime = 3 s  ClockTime = 3 s

writeObjects writeObjects1.writeObjects write:
    writing object a
    writing object qem
End

