/*---------------------------------------------------------------------------*\
| =========                 |                                                 |
| \\      /  F ield         | OpenFOAM: The Open Source CFD Toolbox           |
|  \\    /   O peration     | Version:  2306                                  |
|   \\  /    A nd           | Website:  www.openfoam.com                      |
|    \\/     M anipulation  |                                                 |
\*---------------------------------------------------------------------------*/
Build  : _fbf00d6b-20230626 OPENFOAM=2306 version=2306
Arch   : "LSB;label=32;scalar=64"
Exec   : fireRADFoam_MaCFP
Date   : Mar 12 2024
Time   : 19:28:05
Host   : pop-os
PID    : 172682
I/O    : uncollated
Case   : /home/rafay/Desktop/Study/Radiative_Heat_Transfer/Local_copy_RHT2324/01_Projects/02_Rafay/Case_1_q1D_SolidAngle/new_case3/th_6-ph_12/tau_1/res_1
nProcs : 1
trapFpe: Floating point exception trapping enabled (FOAM_SIGFPE).
fileModificationChecking : Monitoring run-time modified files using timeStampMaster (fileModificationSkew 5, maxFileModificationPolls 20)
allowSystemOperations : Allowing user-supplied system call operations

// * * * * * * * * * * * * * * * * * * * * * * * * * * * * * * * * * * * * * //
Create time

Create mesh for time = 0


PIMPLE: no residual control data found. Calculations will employ 10 corrector loops

Reading thermophysical properties

Selecting thermodynamics package 
{
    type            hePsiThermo;
    mixture         singleStepReactingMixture;
    transport       sutherland;
    thermo          janaf;
    energy          sensibleEnthalpy;
    equationOfState perfectGas;
    specie          specie;
}

Selecting chemistryReader foamChemistryReader
    elements not defined in "/home/rafay/Desktop/Study/Radiative_Heat_Transfer/Local_copy_RHT2324/01_Projects/02_Rafay/Case_1_q1D_SolidAngle/new_case3/th_6-ph_12/tau_1/res_1/constant/reactions"
Fuel heat of combustion :47168962.4726
stoichiometric air-fuel ratio :14.6914056505
stoichiometric oxygen-fuel ratio :3.42181919285
Maximum products mass concentrations:
    H2O: 0.0818486943001
    CO2: 0.199950099979
    N2: 0.718201205721
Creating component thermo properties:
    multi-component carrier - 6 species
    no liquid components
    no solid components
Creating field rho


Reading field U

Reading/calculating face flux field phi

Selecting radiationModel fvDOM
Selecting absorptionEmissionModel constantAbsorptionEmission
Selecting scatterModel none
Selecting sootModel none
fvDOM : Allocated 288 rays with average orientation:
	I0 : dAve : 	(0.000387488209079 0.00591192763451 0.0163624617374) : omega : 	0.0175372336349 : d : 	(0.0169275754541 0.25826489366 0.965925826289)
	I1 : dAve : 	(0.00115583459655 0.00581077291359 0.0163624617374) : omega : 	0.0175372336349 : d : 	(0.050493090853 0.253845909725 0.965925826289)
	I2 : dAve : 	(0.00190440433361 0.00561019425706 0.0163624617374) : omega : 	0.0175372336349 : d : 	(0.083194655468 0.245083551895 0.965925826289)
	I3 : dAve : 	(0.00262038918453 0.00531362362136 0.0163624617374) : omega : 	0.0175372336349 : d : 	(0.114472736462 0.232127746542 0.965925826289)
	I4 : dAve : 	(0.00329153844998 0.00492613541228 0.0163624617374) : omega : 	0.0175372336349 : d : 	(0.143792157198 0.215200171088 0.965925826289)
	I5 : dAve : 	(0.00390636857998 0.00445435966052 0.0163624617374) : omega : 	0.0175372336349 : d : 	(0.170651254257 0.194590461042 0.965925826289)
	I6 : dAve : 	(0.00445435966052 0.00390636857998 0.0163624617374) : omega : 	0.0175372336349 : d : 	(0.194590461042 0.170651254257 0.965925826289)
	I7 : dAve : 	(0.00492613541228 0.00329153844998 0.0163624617374) : omega : 	0.0175372336349 : d : 	(0.215200171088 0.143792157198 0.965925826289)
	I8 : dAve : 	(0.00531362362136 0.00262038918453 0.0163624617374) : omega : 	0.0175372336349 : d : 	(0.232127746542 0.114472736462 0.965925826289)
	I9 : dAve : 	(0.00561019425706 0.00190440433361 0.0163624617374) : omega : 	0.0175372336349 : d : 	(0.245083551895 0.083194655468 0.965925826289)
	I10 : dAve : 	(0.00581077291359 0.00115583459655 0.0163624617374) : omega : 	0.0175372336349 : d : 	(0.253845909725 0.050493090853 0.965925826289)
	I11 : dAve : 	(0.00591192763451 0.000387488209079 0.0163624617374) : omega : 	0.0175372336349 : d : 	(0.25826489366 0.0169275754541 0.965925826289)
	I12 : dAve : 	(0.00591192763451 -0.000387488209079 0.0163624617374) : omega : 	0.0175372336349 : d : 	(0.25826489366 -0.0169275754541 0.965925826289)
	I13 : dAve : 	(0.00581077291359 -0.00115583459655 0.0163624617374) : omega : 	0.0175372336349 : d : 	(0.253845909725 -0.050493090853 0.965925826289)
	I14 : dAve : 	(0.00561019425706 -0.00190440433361 0.0163624617374) : omega : 	0.0175372336349 : d : 	(0.245083551895 -0.083194655468 0.965925826289)
	I15 : dAve : 	(0.00531362362136 -0.00262038918453 0.0163624617374) : omega : 	0.0175372336349 : d : 	(0.232127746542 -0.114472736462 0.965925826289)
	I16 : dAve : 	(0.00492613541228 -0.00329153844998 0.0163624617374) : omega : 	0.0175372336349 : d : 	(0.215200171088 -0.143792157198 0.965925826289)
	I17 : dAve : 	(0.00445435966052 -0.00390636857998 0.0163624617374) : omega : 	0.0175372336349 : d : 	(0.194590461042 -0.170651254257 0.965925826289)
	I18 : dAve : 	(0.00390636857998 -0.00445435966052 0.0163624617374) : omega : 	0.0175372336349 : d : 	(0.170651254257 -0.194590461042 0.965925826289)
	I19 : dAve : 	(0.00329153844998 -0.00492613541228 0.0163624617374) : omega : 	0.0175372336349 : d : 	(0.143792157198 -0.215200171088 0.965925826289)
	I20 : dAve : 	(0.00262038918453 -0.00531362362136 0.0163624617374) : omega : 	0.0175372336349 : d : 	(0.114472736462 -0.232127746542 0.965925826289)
	I21 : dAve : 	(0.00190440433361 -0.00561019425706 0.0163624617374) : omega : 	0.0175372336349 : d : 	(0.083194655468 -0.245083551895 0.965925826289)
	I22 : dAve : 	(0.00115583459655 -0.00581077291359 0.0163624617374) : omega : 	0.0175372336349 : d : 	(0.050493090853 -0.253845909725 0.965925826289)
	I23 : dAve : 	(0.000387488209079 -0.00591192763451 0.0163624617374) : omega : 	0.0175372336349 : d : 	(0.0169275754541 -0.25826489366 0.965925826289)
	I24 : dAve : 	(-0.000387488209079 -0.00591192763451 0.0163624617374) : omega : 	0.0175372336349 : d : 	(-0.0169275754541 -0.25826489366 0.965925826289)
	I25 : dAve : 	(-0.00115583459655 -0.00581077291359 0.0163624617374) : omega : 	0.0175372336349 : d : 	(-0.050493090853 -0.253845909725 0.965925826289)
	I26 : dAve : 	(-0.00190440433361 -0.00561019425706 0.0163624617374) : omega : 	0.0175372336349 : d : 	(-0.083194655468 -0.245083551895 0.965925826289)
	I27 : dAve : 	(-0.00262038918453 -0.00531362362136 0.0163624617374) : omega : 	0.0175372336349 : d : 	(-0.114472736462 -0.232127746542 0.965925826289)
	I28 : dAve : 	(-0.00329153844998 -0.00492613541228 0.0163624617374) : omega : 	0.0175372336349 : d : 	(-0.143792157198 -0.215200171088 0.965925826289)
	I29 : dAve : 	(-0.00390636857998 -0.00445435966052 0.0163624617374) : omega : 	0.0175372336349 : d : 	(-0.170651254257 -0.194590461042 0.965925826289)
	I30 : dAve : 	(-0.00445435966052 -0.00390636857998 0.0163624617374) : omega : 	0.0175372336349 : d : 	(-0.194590461042 -0.170651254257 0.965925826289)
	I31 : dAve : 	(-0.00492613541228 -0.00329153844998 0.0163624617374) : omega : 	0.0175372336349 : d : 	(-0.215200171088 -0.143792157198 0.965925826289)
	I32 : dAve : 	(-0.00531362362136 -0.00262038918453 0.0163624617374) : omega : 	0.0175372336349 : d : 	(-0.232127746542 -0.114472736462 0.965925826289)
	I33 : dAve : 	(-0.00561019425706 -0.00190440433361 0.0163624617374) : omega : 	0.0175372336349 : d : 	(-0.245083551895 -0.083194655468 0.965925826289)
	I34 : dAve : 	(-0.00581077291359 -0.00115583459655 0.0163624617374) : omega : 	0.0175372336349 : d : 	(-0.253845909725 -0.050493090853 0.965925826289)
	I35 : dAve : 	(-0.00591192763451 -0.000387488209079 0.0163624617374) : omega : 	0.0175372336349 : d : 	(-0.25826489366 -0.0169275754541 0.965925826289)
	I36 : dAve : 	(-0.00591192763451 0.000387488209079 0.0163624617374) : omega : 	0.0175372336349 : d : 	(-0.25826489366 0.0169275754541 0.965925826289)
	I37 : dAve : 	(-0.00581077291359 0.00115583459655 0.0163624617374) : omega : 	0.0175372336349 : d : 	(-0.253845909725 0.050493090853 0.965925826289)
	I38 : dAve : 	(-0.00561019425706 0.00190440433361 0.0163624617374) : omega : 	0.0175372336349 : d : 	(-0.245083551895 0.083194655468 0.965925826289)
	I39 : dAve : 	(-0.00531362362136 0.00262038918453 0.0163624617374) : omega : 	0.0175372336349 : d : 	(-0.232127746542 0.114472736462 0.965925826289)
	I40 : dAve : 	(-0.00492613541228 0.00329153844998 0.0163624617374) : omega : 	0.0175372336349 : d : 	(-0.215200171088 0.143792157198 0.965925826289)
	I41 : dAve : 	(-0.00445435966052 0.00390636857998 0.0163624617374) : omega : 	0.0175372336349 : d : 	(-0.194590461042 0.170651254257 0.965925826289)
	I42 : dAve : 	(-0.00390636857998 0.00445435966052 0.0163624617374) : omega : 	0.0175372336349 : d : 	(-0.170651254257 0.194590461042 0.965925826289)
	I43 : dAve : 	(-0.00329153844998 0.00492613541228 0.0163624617374) : omega : 	0.0175372336349 : d : 	(-0.143792157198 0.215200171088 0.965925826289)
	I44 : dAve : 	(-0.00262038918453 0.00531362362136 0.0163624617374) : omega : 	0.0175372336349 : d : 	(-0.114472736462 0.232127746542 0.965925826289)
	I45 : dAve : 	(-0.00190440433361 0.00561019425706 0.0163624617374) : omega : 	0.0175372336349 : d : 	(-0.083194655468 0.245083551895 0.965925826289)
	I46 : dAve : 	(-0.00115583459655 0.00581077291359 0.0163624617374) : omega : 	0.0175372336349 : d : 	(-0.050493090853 0.253845909725 0.965925826289)
	I47 : dAve : 	(-0.000387488209079 0.00591192763451 0.0163624617374) : omega : 	0.0175372336349 : d : 	(-0.0169275754541 0.25826489366 0.965925826289)
	I48 : dAve : 	(0.00223973005487 0.034171677215 0.0327249234749) : omega : 	0.0479126133149 : d : 	(0.0462469961895 0.70559281129 0.707106781187)
	I49 : dAve : 	(0.00668086776241 0.0335869903436 0.0327249234749) : omega : 	0.0479126133149 : d : 	(0.137949689641 0.693519922661 0.707106781187)
	I50 : dAve : 	(0.0110076939702 0.0324276207555 0.0327249234749) : omega : 	0.0479126133149 : d : 	(0.227292025657 0.669580715876 0.707106781187)
	I51 : dAve : 	(0.0151461754823 0.0307134055855 0.0327249234749) : omega : 	0.0479126133149 : d : 	(0.312745332096 0.634184797399 0.707106781187)
	I52 : dAve : 	(0.0190255017326 0.0284736755306 0.0327249234749) : omega : 	0.0479126133149 : d : 	(0.392847479194 0.58793780121 0.707106781187)
	I53 : dAve : 	(0.0225792963734 0.025746752993 0.0327249234749) : omega : 	0.0479126133149 : d : 	(0.466227897004 0.531631026234 0.707106781187)
	I54 : dAve : 	(0.025746752993 0.0225792963734 0.0327249234749) : omega : 	0.0479126133149 : d : 	(0.531631026234 0.466227897004 0.707106781187)
	I55 : dAve : 	(0.0284736755306 0.0190255017326 0.0327249234749) : omega : 	0.0479126133149 : d : 	(0.58793780121 0.392847479194 0.707106781187)
	I56 : dAve : 	(0.0307134055855 0.0151461754823 0.0327249234749) : omega : 	0.0479126133149 : d : 	(0.634184797399 0.312745332096 0.707106781187)
	I57 : dAve : 	(0.0324276207555 0.0110076939702 0.0327249234749) : omega : 	0.0479126133149 : d : 	(0.669580715876 0.227292025657 0.707106781187)
	I58 : dAve : 	(0.0335869903436 0.00668086776241 0.0327249234749) : omega : 	0.0479126133149 : d : 	(0.693519922661 0.137949689641 0.707106781187)
	I59 : dAve : 	(0.034171677215 0.00223973005487 0.0327249234749) : omega : 	0.0479126133149 : d : 	(0.70559281129 0.0462469961895 0.707106781187)
	I60 : dAve : 	(0.034171677215 -0.00223973005487 0.0327249234749) : omega : 	0.0479126133149 : d : 	(0.70559281129 -0.0462469961895 0.707106781187)
	I61 : dAve : 	(0.0335869903436 -0.00668086776241 0.0327249234749) : omega : 	0.0479126133149 : d : 	(0.693519922661 -0.137949689641 0.707106781187)
	I62 : dAve : 	(0.0324276207555 -0.0110076939702 0.0327249234749) : omega : 	0.0479126133149 : d : 	(0.669580715876 -0.227292025657 0.707106781187)
	I63 : dAve : 	(0.0307134055855 -0.0151461754823 0.0327249234749) : omega : 	0.0479126133149 : d : 	(0.634184797399 -0.312745332096 0.707106781187)
	I64 : dAve : 	(0.0284736755306 -0.0190255017326 0.0327249234749) : omega : 	0.0479126133149 : d : 	(0.58793780121 -0.392847479194 0.707106781187)
	I65 : dAve : 	(0.025746752993 -0.0225792963734 0.0327249234749) : omega : 	0.0479126133149 : d : 	(0.531631026234 -0.466227897004 0.707106781187)
	I66 : dAve : 	(0.0225792963734 -0.025746752993 0.0327249234749) : omega : 	0.0479126133149 : d : 	(0.466227897004 -0.531631026234 0.707106781187)
	I67 : dAve : 	(0.0190255017326 -0.0284736755306 0.0327249234749) : omega : 	0.0479126133149 : d : 	(0.392847479194 -0.58793780121 0.707106781187)
	I68 : dAve : 	(0.0151461754823 -0.0307134055855 0.0327249234749) : omega : 	0.0479126133149 : d : 	(0.312745332096 -0.634184797399 0.707106781187)
	I69 : dAve : 	(0.0110076939702 -0.0324276207555 0.0327249234749) : omega : 	0.0479126133149 : d : 	(0.227292025657 -0.669580715876 0.707106781187)
	I70 : dAve : 	(0.00668086776241 -0.0335869903436 0.0327249234749) : omega : 	0.0479126133149 : d : 	(0.137949689641 -0.693519922661 0.707106781187)
	I71 : dAve : 	(0.00223973005487 -0.034171677215 0.0327249234749) : omega : 	0.0479126133149 : d : 	(0.0462469961895 -0.70559281129 0.707106781187)
	I72 : dAve : 	(-0.00223973005487 -0.034171677215 0.0327249234749) : omega : 	0.0479126133149 : d : 	(-0.0462469961895 -0.70559281129 0.707106781187)
	I73 : dAve : 	(-0.00668086776241 -0.0335869903436 0.0327249234749) : omega : 	0.0479126133149 : d : 	(-0.137949689641 -0.693519922661 0.707106781187)
	I74 : dAve : 	(-0.0110076939702 -0.0324276207555 0.0327249234749) : omega : 	0.0479126133149 : d : 	(-0.227292025657 -0.669580715876 0.707106781187)
	I75 : dAve : 	(-0.0151461754823 -0.0307134055855 0.0327249234749) : omega : 	0.0479126133149 : d : 	(-0.312745332096 -0.634184797399 0.707106781187)
	I76 : dAve : 	(-0.0190255017326 -0.0284736755306 0.0327249234749) : omega : 	0.0479126133149 : d : 	(-0.392847479194 -0.58793780121 0.707106781187)
	I77 : dAve : 	(-0.0225792963734 -0.025746752993 0.0327249234749) : omega : 	0.0479126133149 : d : 	(-0.466227897004 -0.531631026234 0.707106781187)
	I78 : dAve : 	(-0.025746752993 -0.0225792963734 0.0327249234749) : omega : 	0.0479126133149 : d : 	(-0.531631026234 -0.466227897004 0.707106781187)
	I79 : dAve : 	(-0.0284736755306 -0.0190255017326 0.0327249234749) : omega : 	0.0479126133149 : d : 	(-0.58793780121 -0.392847479194 0.707106781187)
	I80 : dAve : 	(-0.0307134055855 -0.0151461754823 0.0327249234749) : omega : 	0.0479126133149 : d : 	(-0.634184797399 -0.312745332096 0.707106781187)
	I81 : dAve : 	(-0.0324276207555 -0.0110076939702 0.0327249234749) : omega : 	0.0479126133149 : d : 	(-0.669580715876 -0.227292025657 0.707106781187)
	I82 : dAve : 	(-0.0335869903436 -0.00668086776241 0.0327249234749) : omega : 	0.0479126133149 : d : 	(-0.693519922661 -0.137949689641 0.707106781187)
	I83 : dAve : 	(-0.034171677215 -0.00223973005487 0.0327249234749) : omega : 	0.0479126133149 : d : 	(-0.70559281129 -0.0462469961895 0.707106781187)
	I84 : dAve : 	(-0.034171677215 0.00223973005487 0.0327249234749) : omega : 	0.0479126133149 : d : 	(-0.70559281129 0.0462469961895 0.707106781187)
	I85 : dAve : 	(-0.0335869903436 0.00668086776241 0.0327249234749) : omega : 	0.0479126133149 : d : 	(-0.693519922661 0.137949689641 0.707106781187)
	I86 : dAve : 	(-0.0324276207555 0.0110076939702 0.0327249234749) : omega : 	0.0479126133149 : d : 	(-0.669580715876 0.227292025657 0.707106781187)
	I87 : dAve : 	(-0.0307134055855 0.0151461754823 0.0327249234749) : omega : 	0.0479126133149 : d : 	(-0.634184797399 0.312745332096 0.707106781187)
	I88 : dAve : 	(-0.0284736755306 0.0190255017326 0.0327249234749) : omega : 	0.0479126133149 : d : 	(-0.58793780121 0.392847479194 0.707106781187)
	I89 : dAve : 	(-0.025746752993 0.0225792963734 0.0327249234749) : omega : 	0.0479126133149 : d : 	(-0.531631026234 0.466227897004 0.707106781187)
	I90 : dAve : 	(-0.0225792963734 0.025746752993 0.0327249234749) : omega : 	0.0479126133149 : d : 	(-0.466227897004 0.531631026234 0.707106781187)
	I91 : dAve : 	(-0.0190255017326 0.0284736755306 0.0327249234749) : omega : 	0.0479126133149 : d : 	(-0.392847479194 0.58793780121 0.707106781187)
	I92 : dAve : 	(-0.0151461754823 0.0307134055855 0.0327249234749) : omega : 	0.0479126133149 : d : 	(-0.312745332096 0.634184797399 0.707106781187)
	I93 : dAve : 	(-0.0110076939702 0.0324276207555 0.0327249234749) : omega : 	0.0479126133149 : d : 	(-0.227292025657 0.669580715876 0.707106781187)
	I94 : dAve : 	(-0.00668086776241 0.0335869903436 0.0327249234749) : omega : 	0.0479126133149 : d : 	(-0.137949689641 0.693519922661 0.707106781187)
	I95 : dAve : 	(-0.00223973005487 0.034171677215 0.0327249234749) : omega : 	0.0479126133149 : d : 	(-0.0462469961895 0.70559281129 0.707106781187)
	I96 : dAve : 	(0.00409197190067 0.0624314267954 0.0163624617374) : omega : 	0.0654498469498 : d : 	(0.0631745716435 0.963857704949 0.258819045103)
	I97 : dAve : 	(0.0122059009283 0.0613632077737 0.0163624617374) : omega : 	0.0654498469498 : d : 	(0.188442780494 0.947365832386 0.258819045103)
	I98 : dAve : 	(0.0201109836069 0.0592450472539 0.0163624617374) : omega : 	0.0654498469498 : d : 	(0.310486681125 0.914664267771 0.258819045103)
	I99 : dAve : 	(0.0276719617802 0.0561131875497 0.0163624617374) : omega : 	0.0654498469498 : d : 	(0.427218068558 0.866312543941 0.258819045103)
	I100 : dAve : 	(0.0347594650153 0.052021215649 0.0163624617374) : omega : 	0.0654498469498 : d : 	(0.536639636391 0.803137972298 0.258819045103)
	I101 : dAve : 	(0.0412522241668 0.0470391463256 0.0163624617374) : omega : 	0.0654498469498 : d : 	(0.636879151261 0.726221487276 0.258819045103)
	I102 : dAve : 	(0.0470391463256 0.0412522241668 0.0163624617374) : omega : 	0.0654498469498 : d : 	(0.726221487276 0.636879151261 0.258819045103)
	I103 : dAve : 	(0.052021215649 0.0347594650153 0.0163624617374) : omega : 	0.0654498469498 : d : 	(0.803137972298 0.536639636391 0.258819045103)
	I104 : dAve : 	(0.0561131875497 0.0276719617802 0.0163624617374) : omega : 	0.0654498469498 : d : 	(0.866312543941 0.427218068558 0.258819045103)
	I105 : dAve : 	(0.0592450472539 0.0201109836069 0.0163624617374) : omega : 	0.0654498469498 : d : 	(0.914664267771 0.310486681125 0.258819045103)
	I106 : dAve : 	(0.0613632077737 0.0122059009283 0.0163624617374) : omega : 	0.0654498469498 : d : 	(0.947365832386 0.188442780494 0.258819045103)
	I107 : dAve : 	(0.0624314267954 0.00409197190067 0.0163624617374) : omega : 	0.0654498469498 : d : 	(0.963857704949 0.0631745716435 0.258819045103)
	I108 : dAve : 	(0.0624314267954 -0.00409197190067 0.0163624617374) : omega : 	0.0654498469498 : d : 	(0.963857704949 -0.0631745716435 0.258819045103)
	I109 : dAve : 	(0.0613632077737 -0.0122059009283 0.0163624617374) : omega : 	0.0654498469498 : d : 	(0.947365832386 -0.188442780494 0.258819045103)
	I110 : dAve : 	(0.0592450472539 -0.0201109836069 0.0163624617374) : omega : 	0.0654498469498 : d : 	(0.914664267771 -0.310486681125 0.258819045103)
	I111 : dAve : 	(0.0561131875497 -0.0276719617802 0.0163624617374) : omega : 	0.0654498469498 : d : 	(0.866312543941 -0.427218068558 0.258819045103)
	I112 : dAve : 	(0.052021215649 -0.0347594650153 0.0163624617374) : omega : 	0.0654498469498 : d : 	(0.803137972298 -0.536639636391 0.258819045103)
	I113 : dAve : 	(0.0470391463256 -0.0412522241668 0.0163624617374) : omega : 	0.0654498469498 : d : 	(0.726221487276 -0.636879151261 0.258819045103)
	I114 : dAve : 	(0.0412522241668 -0.0470391463256 0.0163624617374) : omega : 	0.0654498469498 : d : 	(0.636879151261 -0.726221487276 0.258819045103)
	I115 : dAve : 	(0.0347594650153 -0.052021215649 0.0163624617374) : omega : 	0.0654498469498 : d : 	(0.536639636391 -0.803137972298 0.258819045103)
	I116 : dAve : 	(0.0276719617802 -0.0561131875497 0.0163624617374) : omega : 	0.0654498469498 : d : 	(0.427218068558 -0.866312543941 0.258819045103)
	I117 : dAve : 	(0.0201109836069 -0.0592450472539 0.0163624617374) : omega : 	0.0654498469498 : d : 	(0.310486681125 -0.914664267771 0.258819045103)
	I118 : dAve : 	(0.0122059009283 -0.0613632077737 0.0163624617374) : omega : 	0.0654498469498 : d : 	(0.188442780494 -0.947365832386 0.258819045103)
	I119 : dAve : 	(0.00409197190067 -0.0624314267954 0.0163624617374) : omega : 	0.0654498469498 : d : 	(0.0631745716435 -0.963857704949 0.258819045103)
	I120 : dAve : 	(-0.00409197190067 -0.0624314267954 0.0163624617374) : omega : 	0.0654498469498 : d : 	(-0.0631745716435 -0.963857704949 0.258819045103)
	I121 : dAve : 	(-0.0122059009283 -0.0613632077737 0.0163624617374) : omega : 	0.0654498469498 : d : 	(-0.188442780494 -0.947365832386 0.258819045103)
	I122 : dAve : 	(-0.0201109836069 -0.0592450472539 0.0163624617374) : omega : 	0.0654498469498 : d : 	(-0.310486681125 -0.914664267771 0.258819045103)
	I123 : dAve : 	(-0.0276719617802 -0.0561131875497 0.0163624617374) : omega : 	0.0654498469498 : d : 	(-0.427218068558 -0.866312543941 0.258819045103)
	I124 : dAve : 	(-0.0347594650153 -0.052021215649 0.0163624617374) : omega : 	0.0654498469498 : d : 	(-0.536639636391 -0.803137972298 0.258819045103)
	I125 : dAve : 	(-0.0412522241668 -0.0470391463256 0.0163624617374) : omega : 	0.0654498469498 : d : 	(-0.636879151261 -0.726221487276 0.258819045103)
	I126 : dAve : 	(-0.0470391463256 -0.0412522241668 0.0163624617374) : omega : 	0.0654498469498 : d : 	(-0.726221487276 -0.636879151261 0.258819045103)
	I127 : dAve : 	(-0.052021215649 -0.0347594650153 0.0163624617374) : omega : 	0.0654498469498 : d : 	(-0.803137972298 -0.536639636391 0.258819045103)
	I128 : dAve : 	(-0.0561131875497 -0.0276719617802 0.0163624617374) : omega : 	0.0654498469498 : d : 	(-0.866312543941 -0.427218068558 0.258819045103)
	I129 : dAve : 	(-0.0592450472539 -0.0201109836069 0.0163624617374) : omega : 	0.0654498469498 : d : 	(-0.914664267771 -0.310486681125 0.258819045103)
	I130 : dAve : 	(-0.0613632077737 -0.0122059009283 0.0163624617374) : omega : 	0.0654498469498 : d : 	(-0.947365832386 -0.188442780494 0.258819045103)
	I131 : dAve : 	(-0.0624314267954 -0.00409197190067 0.0163624617374) : omega : 	0.0654498469498 : d : 	(-0.963857704949 -0.0631745716435 0.258819045103)
	I132 : dAve : 	(-0.0624314267954 0.00409197190067 0.0163624617374) : omega : 	0.0654498469498 : d : 	(-0.963857704949 0.0631745716435 0.258819045103)
	I133 : dAve : 	(-0.0613632077737 0.0122059009283 0.0163624617374) : omega : 	0.0654498469498 : d : 	(-0.947365832386 0.188442780494 0.258819045103)
	I134 : dAve : 	(-0.0592450472539 0.0201109836069 0.0163624617374) : omega : 	0.0654498469498 : d : 	(-0.914664267771 0.310486681125 0.258819045103)
	I135 : dAve : 	(-0.0561131875497 0.0276719617802 0.0163624617374) : omega : 	0.0654498469498 : d : 	(-0.866312543941 0.427218068558 0.258819045103)
	I136 : dAve : 	(-0.052021215649 0.0347594650153 0.0163624617374) : omega : 	0.0654498469498 : d : 	(-0.803137972298 0.536639636391 0.258819045103)
	I137 : dAve : 	(-0.0470391463256 0.0412522241668 0.0163624617374) : omega : 	0.0654498469498 : d : 	(-0.726221487276 0.636879151261 0.258819045103)
	I138 : dAve : 	(-0.0412522241668 0.0470391463256 0.0163624617374) : omega : 	0.0654498469498 : d : 	(-0.636879151261 0.726221487276 0.258819045103)
	I139 : dAve : 	(-0.0347594650153 0.052021215649 0.0163624617374) : omega : 	0.0654498469498 : d : 	(-0.536639636391 0.803137972298 0.258819045103)
	I140 : dAve : 	(-0.0276719617802 0.0561131875497 0.0163624617374) : omega : 	0.0654498469498 : d : 	(-0.427218068558 0.866312543941 0.258819045103)
	I141 : dAve : 	(-0.0201109836069 0.0592450472539 0.0163624617374) : omega : 	0.0654498469498 : d : 	(-0.310486681125 0.914664267771 0.258819045103)
	I142 : dAve : 	(-0.0122059009283 0.0613632077737 0.0163624617374) : omega : 	0.0654498469498 : d : 	(-0.188442780494 0.947365832386 0.258819045103)
	I143 : dAve : 	(-0.00409197190067 0.0624314267954 0.0163624617374) : omega : 	0.0654498469498 : d : 	(-0.0631745716435 0.963857704949 0.258819045103)
	I144 : dAve : 	(0.00409197190067 0.0624314267954 -0.0163624617374) : omega : 	0.0654498469498 : d : 	(0.0631745716435 0.963857704949 -0.258819045103)
	I145 : dAve : 	(0.0122059009283 0.0613632077737 -0.0163624617374) : omega : 	0.0654498469498 : d : 	(0.188442780494 0.947365832386 -0.258819045103)
	I146 : dAve : 	(0.0201109836069 0.0592450472539 -0.0163624617374) : omega : 	0.0654498469498 : d : 	(0.310486681125 0.914664267771 -0.258819045103)
	I147 : dAve : 	(0.0276719617802 0.0561131875497 -0.0163624617374) : omega : 	0.0654498469498 : d : 	(0.427218068558 0.866312543941 -0.258819045103)
	I148 : dAve : 	(0.0347594650153 0.052021215649 -0.0163624617374) : omega : 	0.0654498469498 : d : 	(0.536639636391 0.803137972298 -0.258819045103)
	I149 : dAve : 	(0.0412522241668 0.0470391463256 -0.0163624617374) : omega : 	0.0654498469498 : d : 	(0.636879151261 0.726221487276 -0.258819045103)
	I150 : dAve : 	(0.0470391463256 0.0412522241668 -0.0163624617374) : omega : 	0.0654498469498 : d : 	(0.726221487276 0.636879151261 -0.258819045103)
	I151 : dAve : 	(0.052021215649 0.0347594650153 -0.0163624617374) : omega : 	0.0654498469498 : d : 	(0.803137972298 0.536639636391 -0.258819045103)
	I152 : dAve : 	(0.0561131875497 0.0276719617802 -0.0163624617374) : omega : 	0.0654498469498 : d : 	(0.866312543941 0.427218068558 -0.258819045103)
	I153 : dAve : 	(0.0592450472539 0.0201109836069 -0.0163624617374) : omega : 	0.0654498469498 : d : 	(0.914664267771 0.310486681125 -0.258819045103)
	I154 : dAve : 	(0.0613632077737 0.0122059009283 -0.0163624617374) : omega : 	0.0654498469498 : d : 	(0.947365832386 0.188442780494 -0.258819045103)
	I155 : dAve : 	(0.0624314267954 0.00409197190067 -0.0163624617374) : omega : 	0.0654498469498 : d : 	(0.963857704949 0.0631745716435 -0.258819045103)
	I156 : dAve : 	(0.0624314267954 -0.00409197190067 -0.0163624617374) : omega : 	0.0654498469498 : d : 	(0.963857704949 -0.0631745716435 -0.258819045103)
	I157 : dAve : 	(0.0613632077737 -0.0122059009283 -0.0163624617374) : omega : 	0.0654498469498 : d : 	(0.947365832386 -0.188442780494 -0.258819045103)
	I158 : dAve : 	(0.0592450472539 -0.0201109836069 -0.0163624617374) : omega : 	0.0654498469498 : d : 	(0.914664267771 -0.310486681125 -0.258819045103)
	I159 : dAve : 	(0.0561131875497 -0.0276719617802 -0.0163624617374) : omega : 	0.0654498469498 : d : 	(0.866312543941 -0.427218068558 -0.258819045103)
	I160 : dAve : 	(0.052021215649 -0.0347594650153 -0.0163624617374) : omega : 	0.0654498469498 : d : 	(0.803137972298 -0.536639636391 -0.258819045103)
	I161 : dAve : 	(0.0470391463256 -0.0412522241668 -0.0163624617374) : omega : 	0.0654498469498 : d : 	(0.726221487276 -0.636879151261 -0.258819045103)
	I162 : dAve : 	(0.0412522241668 -0.0470391463256 -0.0163624617374) : omega : 	0.0654498469498 : d : 	(0.636879151261 -0.726221487276 -0.258819045103)
	I163 : dAve : 	(0.0347594650153 -0.052021215649 -0.0163624617374) : omega : 	0.0654498469498 : d : 	(0.536639636391 -0.803137972298 -0.258819045103)
	I164 : dAve : 	(0.0276719617802 -0.0561131875497 -0.0163624617374) : omega : 	0.0654498469498 : d : 	(0.427218068558 -0.866312543941 -0.258819045103)
	I165 : dAve : 	(0.0201109836069 -0.0592450472539 -0.0163624617374) : omega : 	0.0654498469498 : d : 	(0.310486681125 -0.914664267771 -0.258819045103)
	I166 : dAve : 	(0.0122059009283 -0.0613632077737 -0.0163624617374) : omega : 	0.0654498469498 : d : 	(0.188442780494 -0.947365832386 -0.258819045103)
	I167 : dAve : 	(0.00409197190067 -0.0624314267954 -0.0163624617374) : omega : 	0.0654498469498 : d : 	(0.0631745716435 -0.963857704949 -0.258819045103)
	I168 : dAve : 	(-0.00409197190067 -0.0624314267954 -0.0163624617374) : omega : 	0.0654498469498 : d : 	(-0.0631745716435 -0.963857704949 -0.258819045103)
	I169 : dAve : 	(-0.0122059009283 -0.0613632077737 -0.0163624617374) : omega : 	0.0654498469498 : d : 	(-0.188442780494 -0.947365832386 -0.258819045103)
	I170 : dAve : 	(-0.0201109836069 -0.0592450472539 -0.0163624617374) : omega : 	0.0654498469498 : d : 	(-0.310486681125 -0.914664267771 -0.258819045103)
	I171 : dAve : 	(-0.0276719617802 -0.0561131875497 -0.0163624617374) : omega : 	0.0654498469498 : d : 	(-0.427218068558 -0.866312543941 -0.258819045103)
	I172 : dAve : 	(-0.0347594650153 -0.052021215649 -0.0163624617374) : omega : 	0.0654498469498 : d : 	(-0.536639636391 -0.803137972298 -0.258819045103)
	I173 : dAve : 	(-0.0412522241668 -0.0470391463256 -0.0163624617374) : omega : 	0.0654498469498 : d : 	(-0.636879151261 -0.726221487276 -0.258819045103)
	I174 : dAve : 	(-0.0470391463256 -0.0412522241668 -0.0163624617374) : omega : 	0.0654498469498 : d : 	(-0.726221487276 -0.636879151261 -0.258819045103)
	I175 : dAve : 	(-0.052021215649 -0.0347594650153 -0.0163624617374) : omega : 	0.0654498469498 : d : 	(-0.803137972298 -0.536639636391 -0.258819045103)
	I176 : dAve : 	(-0.0561131875497 -0.0276719617802 -0.0163624617374) : omega : 	0.0654498469498 : d : 	(-0.866312543941 -0.427218068558 -0.258819045103)
	I177 : dAve : 	(-0.0592450472539 -0.0201109836069 -0.0163624617374) : omega : 	0.0654498469498 : d : 	(-0.914664267771 -0.310486681125 -0.258819045103)
	I178 : dAve : 	(-0.0613632077737 -0.0122059009283 -0.0163624617374) : omega : 	0.0654498469498 : d : 	(-0.947365832386 -0.188442780494 -0.258819045103)
	I179 : dAve : 	(-0.0624314267954 -0.00409197190067 -0.0163624617374) : omega : 	0.0654498469498 : d : 	(-0.963857704949 -0.0631745716435 -0.258819045103)
	I180 : dAve : 	(-0.0624314267954 0.00409197190067 -0.0163624617374) : omega : 	0.0654498469498 : d : 	(-0.963857704949 0.0631745716435 -0.258819045103)
	I181 : dAve : 	(-0.0613632077737 0.0122059009283 -0.0163624617374) : omega : 	0.0654498469498 : d : 	(-0.947365832386 0.188442780494 -0.258819045103)
	I182 : dAve : 	(-0.0592450472539 0.0201109836069 -0.0163624617374) : omega : 	0.0654498469498 : d : 	(-0.914664267771 0.310486681125 -0.258819045103)
	I183 : dAve : 	(-0.0561131875497 0.0276719617802 -0.0163624617374) : omega : 	0.0654498469498 : d : 	(-0.866312543941 0.427218068558 -0.258819045103)
	I184 : dAve : 	(-0.052021215649 0.0347594650153 -0.0163624617374) : omega : 	0.0654498469498 : d : 	(-0.803137972298 0.536639636391 -0.258819045103)
	I185 : dAve : 	(-0.0470391463256 0.0412522241668 -0.0163624617374) : omega : 	0.0654498469498 : d : 	(-0.726221487276 0.636879151261 -0.258819045103)
	I186 : dAve : 	(-0.0412522241668 0.0470391463256 -0.0163624617374) : omega : 	0.0654498469498 : d : 	(-0.636879151261 0.726221487276 -0.258819045103)
	I187 : dAve : 	(-0.0347594650153 0.052021215649 -0.0163624617374) : omega : 	0.0654498469498 : d : 	(-0.536639636391 0.803137972298 -0.258819045103)
	I188 : dAve : 	(-0.0276719617802 0.0561131875497 -0.0163624617374) : omega : 	0.0654498469498 : d : 	(-0.427218068558 0.866312543941 -0.258819045103)
	I189 : dAve : 	(-0.0201109836069 0.0592450472539 -0.0163624617374) : omega : 	0.0654498469498 : d : 	(-0.310486681125 0.914664267771 -0.258819045103)
	I190 : dAve : 	(-0.0122059009283 0.0613632077737 -0.0163624617374) : omega : 	0.0654498469498 : d : 	(-0.188442780494 0.947365832386 -0.258819045103)
	I191 : dAve : 	(-0.00409197190067 0.0624314267954 -0.0163624617374) : omega : 	0.0654498469498 : d : 	(-0.0631745716435 0.963857704949 -0.258819045103)
	I192 : dAve : 	(0.00223973005487 0.034171677215 -0.0327249234749) : omega : 	0.0479126133149 : d : 	(0.0462469961895 0.70559281129 -0.707106781187)
	I193 : dAve : 	(0.00668086776241 0.0335869903436 -0.0327249234749) : omega : 	0.0479126133149 : d : 	(0.137949689641 0.693519922661 -0.707106781187)
	I194 : dAve : 	(0.0110076939702 0.0324276207555 -0.0327249234749) : omega : 	0.0479126133149 : d : 	(0.227292025657 0.669580715876 -0.707106781187)
	I195 : dAve : 	(0.0151461754823 0.0307134055855 -0.0327249234749) : omega : 	0.0479126133149 : d : 	(0.312745332096 0.634184797399 -0.707106781187)
	I196 : dAve : 	(0.0190255017326 0.0284736755306 -0.0327249234749) : omega : 	0.0479126133149 : d : 	(0.392847479194 0.58793780121 -0.707106781187)
	I197 : dAve : 	(0.0225792963734 0.025746752993 -0.0327249234749) : omega : 	0.0479126133149 : d : 	(0.466227897004 0.531631026234 -0.707106781187)
	I198 : dAve : 	(0.025746752993 0.0225792963734 -0.0327249234749) : omega : 	0.0479126133149 : d : 	(0.531631026234 0.466227897004 -0.707106781187)
	I199 : dAve : 	(0.0284736755306 0.0190255017326 -0.0327249234749) : omega : 	0.0479126133149 : d : 	(0.58793780121 0.392847479194 -0.707106781187)
	I200 : dAve : 	(0.0307134055855 0.0151461754823 -0.0327249234749) : omega : 	0.0479126133149 : d : 	(0.634184797399 0.312745332096 -0.707106781187)
	I201 : dAve : 	(0.0324276207555 0.0110076939702 -0.0327249234749) : omega : 	0.0479126133149 : d : 	(0.669580715876 0.227292025657 -0.707106781187)
	I202 : dAve : 	(0.0335869903436 0.00668086776241 -0.0327249234749) : omega : 	0.0479126133149 : d : 	(0.693519922661 0.137949689641 -0.707106781187)
	I203 : dAve : 	(0.034171677215 0.00223973005487 -0.0327249234749) : omega : 	0.0479126133149 : d : 	(0.70559281129 0.0462469961895 -0.707106781187)
	I204 : dAve : 	(0.034171677215 -0.00223973005487 -0.0327249234749) : omega : 	0.0479126133149 : d : 	(0.70559281129 -0.0462469961895 -0.707106781187)
	I205 : dAve : 	(0.0335869903436 -0.00668086776241 -0.0327249234749) : omega : 	0.0479126133149 : d : 	(0.693519922661 -0.137949689641 -0.707106781187)
	I206 : dAve : 	(0.0324276207555 -0.0110076939702 -0.0327249234749) : omega : 	0.0479126133149 : d : 	(0.669580715876 -0.227292025657 -0.707106781187)
	I207 : dAve : 	(0.0307134055855 -0.0151461754823 -0.0327249234749) : omega : 	0.0479126133149 : d : 	(0.634184797399 -0.312745332096 -0.707106781187)
	I208 : dAve : 	(0.0284736755306 -0.0190255017326 -0.0327249234749) : omega : 	0.0479126133149 : d : 	(0.58793780121 -0.392847479194 -0.707106781187)
	I209 : dAve : 	(0.025746752993 -0.0225792963734 -0.0327249234749) : omega : 	0.0479126133149 : d : 	(0.531631026234 -0.466227897004 -0.707106781187)
	I210 : dAve : 	(0.0225792963734 -0.025746752993 -0.0327249234749) : omega : 	0.0479126133149 : d : 	(0.466227897004 -0.531631026234 -0.707106781187)
	I211 : dAve : 	(0.0190255017326 -0.0284736755306 -0.0327249234749) : omega : 	0.0479126133149 : d : 	(0.392847479194 -0.58793780121 -0.707106781187)
	I212 : dAve : 	(0.0151461754823 -0.0307134055855 -0.0327249234749) : omega : 	0.0479126133149 : d : 	(0.312745332096 -0.634184797399 -0.707106781187)
	I213 : dAve : 	(0.0110076939702 -0.0324276207555 -0.0327249234749) : omega : 	0.0479126133149 : d : 	(0.227292025657 -0.669580715876 -0.707106781187)
	I214 : dAve : 	(0.00668086776241 -0.0335869903436 -0.0327249234749) : omega : 	0.0479126133149 : d : 	(0.137949689641 -0.693519922661 -0.707106781187)
	I215 : dAve : 	(0.00223973005487 -0.034171677215 -0.0327249234749) : omega : 	0.0479126133149 : d : 	(0.0462469961895 -0.70559281129 -0.707106781187)
	I216 : dAve : 	(-0.00223973005487 -0.034171677215 -0.0327249234749) : omega : 	0.0479126133149 : d : 	(-0.0462469961895 -0.70559281129 -0.707106781187)
	I217 : dAve : 	(-0.00668086776241 -0.0335869903436 -0.0327249234749) : omega : 	0.0479126133149 : d : 	(-0.137949689641 -0.693519922661 -0.707106781187)
	I218 : dAve : 	(-0.0110076939702 -0.0324276207555 -0.0327249234749) : omega : 	0.0479126133149 : d : 	(-0.227292025657 -0.669580715876 -0.707106781187)
	I219 : dAve : 	(-0.0151461754823 -0.0307134055855 -0.0327249234749) : omega : 	0.0479126133149 : d : 	(-0.312745332096 -0.634184797399 -0.707106781187)
	I220 : dAve : 	(-0.0190255017326 -0.0284736755306 -0.0327249234749) : omega : 	0.0479126133149 : d : 	(-0.392847479194 -0.58793780121 -0.707106781187)
	I221 : dAve : 	(-0.0225792963734 -0.025746752993 -0.0327249234749) : omega : 	0.0479126133149 : d : 	(-0.466227897004 -0.531631026234 -0.707106781187)
	I222 : dAve : 	(-0.025746752993 -0.0225792963734 -0.0327249234749) : omega : 	0.0479126133149 : d : 	(-0.531631026234 -0.466227897004 -0.707106781187)
	I223 : dAve : 	(-0.0284736755306 -0.0190255017326 -0.0327249234749) : omega : 	0.0479126133149 : d : 	(-0.58793780121 -0.392847479194 -0.707106781187)
	I224 : dAve : 	(-0.0307134055855 -0.0151461754823 -0.0327249234749) : omega : 	0.0479126133149 : d : 	(-0.634184797399 -0.312745332096 -0.707106781187)
	I225 : dAve : 	(-0.0324276207555 -0.0110076939702 -0.0327249234749) : omega : 	0.0479126133149 : d : 	(-0.669580715876 -0.227292025657 -0.707106781187)
	I226 : dAve : 	(-0.0335869903436 -0.00668086776241 -0.0327249234749) : omega : 	0.0479126133149 : d : 	(-0.693519922661 -0.137949689641 -0.707106781187)
	I227 : dAve : 	(-0.034171677215 -0.00223973005487 -0.0327249234749) : omega : 	0.0479126133149 : d : 	(-0.70559281129 -0.0462469961895 -0.707106781187)
	I228 : dAve : 	(-0.034171677215 0.00223973005487 -0.0327249234749) : omega : 	0.0479126133149 : d : 	(-0.70559281129 0.0462469961895 -0.707106781187)
	I229 : dAve : 	(-0.0335869903436 0.00668086776241 -0.0327249234749) : omega : 	0.0479126133149 : d : 	(-0.693519922661 0.137949689641 -0.707106781187)
	I230 : dAve : 	(-0.0324276207555 0.0110076939702 -0.0327249234749) : omega : 	0.0479126133149 : d : 	(-0.669580715876 0.227292025657 -0.707106781187)
	I231 : dAve : 	(-0.0307134055855 0.0151461754823 -0.0327249234749) : omega : 	0.0479126133149 : d : 	(-0.634184797399 0.312745332096 -0.707106781187)
	I232 : dAve : 	(-0.0284736755306 0.0190255017326 -0.0327249234749) : omega : 	0.0479126133149 : d : 	(-0.58793780121 0.392847479194 -0.707106781187)
	I233 : dAve : 	(-0.025746752993 0.0225792963734 -0.0327249234749) : omega : 	0.0479126133149 : d : 	(-0.531631026234 0.466227897004 -0.707106781187)
	I234 : dAve : 	(-0.0225792963734 0.025746752993 -0.0327249234749) : omega : 	0.0479126133149 : d : 	(-0.466227897004 0.531631026234 -0.707106781187)
	I235 : dAve : 	(-0.0190255017326 0.0284736755306 -0.0327249234749) : omega : 	0.0479126133149 : d : 	(-0.392847479194 0.58793780121 -0.707106781187)
	I236 : dAve : 	(-0.0151461754823 0.0307134055855 -0.0327249234749) : omega : 	0.0479126133149 : d : 	(-0.312745332096 0.634184797399 -0.707106781187)
	I237 : dAve : 	(-0.0110076939702 0.0324276207555 -0.0327249234749) : omega : 	0.0479126133149 : d : 	(-0.227292025657 0.669580715876 -0.707106781187)
	I238 : dAve : 	(-0.00668086776241 0.0335869903436 -0.0327249234749) : omega : 	0.0479126133149 : d : 	(-0.137949689641 0.693519922661 -0.707106781187)
	I239 : dAve : 	(-0.00223973005487 0.034171677215 -0.0327249234749) : omega : 	0.0479126133149 : d : 	(-0.0462469961895 0.70559281129 -0.707106781187)
	I240 : dAve : 	(0.000387488209079 0.00591192763451 -0.0163624617374) : omega : 	0.0175372336349 : d : 	(0.0169275754541 0.25826489366 -0.965925826289)
	I241 : dAve : 	(0.00115583459655 0.00581077291359 -0.0163624617374) : omega : 	0.0175372336349 : d : 	(0.050493090853 0.253845909725 -0.965925826289)
	I242 : dAve : 	(0.00190440433361 0.00561019425706 -0.0163624617374) : omega : 	0.0175372336349 : d : 	(0.083194655468 0.245083551895 -0.965925826289)
	I243 : dAve : 	(0.00262038918453 0.00531362362136 -0.0163624617374) : omega : 	0.0175372336349 : d : 	(0.114472736462 0.232127746542 -0.965925826289)
	I244 : dAve : 	(0.00329153844998 0.00492613541228 -0.0163624617374) : omega : 	0.0175372336349 : d : 	(0.143792157198 0.215200171088 -0.965925826289)
	I245 : dAve : 	(0.00390636857998 0.00445435966052 -0.0163624617374) : omega : 	0.0175372336349 : d : 	(0.170651254257 0.194590461042 -0.965925826289)
	I246 : dAve : 	(0.00445435966052 0.00390636857998 -0.0163624617374) : omega : 	0.0175372336349 : d : 	(0.194590461042 0.170651254257 -0.965925826289)
	I247 : dAve : 	(0.00492613541228 0.00329153844998 -0.0163624617374) : omega : 	0.0175372336349 : d : 	(0.215200171088 0.143792157198 -0.965925826289)
	I248 : dAve : 	(0.00531362362136 0.00262038918453 -0.0163624617374) : omega : 	0.0175372336349 : d : 	(0.232127746542 0.114472736462 -0.965925826289)
	I249 : dAve : 	(0.00561019425706 0.00190440433361 -0.0163624617374) : omega : 	0.0175372336349 : d : 	(0.245083551895 0.083194655468 -0.965925826289)
	I250 : dAve : 	(0.00581077291359 0.00115583459655 -0.0163624617374) : omega : 	0.0175372336349 : d : 	(0.253845909725 0.050493090853 -0.965925826289)
	I251 : dAve : 	(0.00591192763451 0.000387488209079 -0.0163624617374) : omega : 	0.0175372336349 : d : 	(0.25826489366 0.0169275754541 -0.965925826289)
	I252 : dAve : 	(0.00591192763451 -0.000387488209079 -0.0163624617374) : omega : 	0.0175372336349 : d : 	(0.25826489366 -0.0169275754541 -0.965925826289)
	I253 : dAve : 	(0.00581077291359 -0.00115583459655 -0.0163624617374) : omega : 	0.0175372336349 : d : 	(0.253845909725 -0.050493090853 -0.965925826289)
	I254 : dAve : 	(0.00561019425706 -0.00190440433361 -0.0163624617374) : omega : 	0.0175372336349 : d : 	(0.245083551895 -0.083194655468 -0.965925826289)
	I255 : dAve : 	(0.00531362362136 -0.00262038918453 -0.0163624617374) : omega : 	0.0175372336349 : d : 	(0.232127746542 -0.114472736462 -0.965925826289)
	I256 : dAve : 	(0.00492613541228 -0.00329153844998 -0.0163624617374) : omega : 	0.0175372336349 : d : 	(0.215200171088 -0.143792157198 -0.965925826289)
	I257 : dAve : 	(0.00445435966052 -0.00390636857998 -0.0163624617374) : omega : 	0.0175372336349 : d : 	(0.194590461042 -0.170651254257 -0.965925826289)
	I258 : dAve : 	(0.00390636857998 -0.00445435966052 -0.0163624617374) : omega : 	0.0175372336349 : d : 	(0.170651254257 -0.194590461042 -0.965925826289)
	I259 : dAve : 	(0.00329153844998 -0.00492613541228 -0.0163624617374) : omega : 	0.0175372336349 : d : 	(0.143792157198 -0.215200171088 -0.965925826289)
	I260 : dAve : 	(0.00262038918453 -0.00531362362136 -0.0163624617374) : omega : 	0.0175372336349 : d : 	(0.114472736462 -0.232127746542 -0.965925826289)
	I261 : dAve : 	(0.00190440433361 -0.00561019425706 -0.0163624617374) : omega : 	0.0175372336349 : d : 	(0.083194655468 -0.245083551895 -0.965925826289)
	I262 : dAve : 	(0.00115583459655 -0.00581077291359 -0.0163624617374) : omega : 	0.0175372336349 : d : 	(0.050493090853 -0.253845909725 -0.965925826289)
	I263 : dAve : 	(0.000387488209079 -0.00591192763451 -0.0163624617374) : omega : 	0.0175372336349 : d : 	(0.0169275754541 -0.25826489366 -0.965925826289)
	I264 : dAve : 	(-0.000387488209079 -0.00591192763451 -0.0163624617374) : omega : 	0.0175372336349 : d : 	(-0.0169275754541 -0.25826489366 -0.965925826289)
	I265 : dAve : 	(-0.00115583459655 -0.00581077291359 -0.0163624617374) : omega : 	0.0175372336349 : d : 	(-0.050493090853 -0.253845909725 -0.965925826289)
	I266 : dAve : 	(-0.00190440433361 -0.00561019425706 -0.0163624617374) : omega : 	0.0175372336349 : d : 	(-0.083194655468 -0.245083551895 -0.965925826289)
	I267 : dAve : 	(-0.00262038918453 -0.00531362362136 -0.0163624617374) : omega : 	0.0175372336349 : d : 	(-0.114472736462 -0.232127746542 -0.965925826289)
	I268 : dAve : 	(-0.00329153844998 -0.00492613541228 -0.0163624617374) : omega : 	0.0175372336349 : d : 	(-0.143792157198 -0.215200171088 -0.965925826289)
	I269 : dAve : 	(-0.00390636857998 -0.00445435966052 -0.0163624617374) : omega : 	0.0175372336349 : d : 	(-0.170651254257 -0.194590461042 -0.965925826289)
	I270 : dAve : 	(-0.00445435966052 -0.00390636857998 -0.0163624617374) : omega : 	0.0175372336349 : d : 	(-0.194590461042 -0.170651254257 -0.965925826289)
	I271 : dAve : 	(-0.00492613541228 -0.00329153844998 -0.0163624617374) : omega : 	0.0175372336349 : d : 	(-0.215200171088 -0.143792157198 -0.965925826289)
	I272 : dAve : 	(-0.00531362362136 -0.00262038918453 -0.0163624617374) : omega : 	0.0175372336349 : d : 	(-0.232127746542 -0.114472736462 -0.965925826289)
	I273 : dAve : 	(-0.00561019425706 -0.00190440433361 -0.0163624617374) : omega : 	0.0175372336349 : d : 	(-0.245083551895 -0.083194655468 -0.965925826289)
	I274 : dAve : 	(-0.00581077291359 -0.00115583459655 -0.0163624617374) : omega : 	0.0175372336349 : d : 	(-0.253845909725 -0.050493090853 -0.965925826289)
	I275 : dAve : 	(-0.00591192763451 -0.000387488209079 -0.0163624617374) : omega : 	0.0175372336349 : d : 	(-0.25826489366 -0.0169275754541 -0.965925826289)
	I276 : dAve : 	(-0.00591192763451 0.000387488209079 -0.0163624617374) : omega : 	0.0175372336349 : d : 	(-0.25826489366 0.0169275754541 -0.965925826289)
	I277 : dAve : 	(-0.00581077291359 0.00115583459655 -0.0163624617374) : omega : 	0.0175372336349 : d : 	(-0.253845909725 0.050493090853 -0.965925826289)
	I278 : dAve : 	(-0.00561019425706 0.00190440433361 -0.0163624617374) : omega : 	0.0175372336349 : d : 	(-0.245083551895 0.083194655468 -0.965925826289)
	I279 : dAve : 	(-0.00531362362136 0.00262038918453 -0.0163624617374) : omega : 	0.0175372336349 : d : 	(-0.232127746542 0.114472736462 -0.965925826289)
	I280 : dAve : 	(-0.00492613541228 0.00329153844998 -0.0163624617374) : omega : 	0.0175372336349 : d : 	(-0.215200171088 0.143792157198 -0.965925826289)
	I281 : dAve : 	(-0.00445435966052 0.00390636857998 -0.0163624617374) : omega : 	0.0175372336349 : d : 	(-0.194590461042 0.170651254257 -0.965925826289)
	I282 : dAve : 	(-0.00390636857998 0.00445435966052 -0.0163624617374) : omega : 	0.0175372336349 : d : 	(-0.170651254257 0.194590461042 -0.965925826289)
	I283 : dAve : 	(-0.00329153844998 0.00492613541228 -0.0163624617374) : omega : 	0.0175372336349 : d : 	(-0.143792157198 0.215200171088 -0.965925826289)
	I284 : dAve : 	(-0.00262038918453 0.00531362362136 -0.0163624617374) : omega : 	0.0175372336349 : d : 	(-0.114472736462 0.232127746542 -0.965925826289)
	I285 : dAve : 	(-0.00190440433361 0.00561019425706 -0.0163624617374) : omega : 	0.0175372336349 : d : 	(-0.083194655468 0.245083551895 -0.965925826289)
	I286 : dAve : 	(-0.00115583459655 0.00581077291359 -0.0163624617374) : omega : 	0.0175372336349 : d : 	(-0.050493090853 0.253845909725 -0.965925826289)
	I287 : dAve : 	(-0.000387488209079 0.00591192763451 -0.0163624617374) : omega : 	0.0175372336349 : d : 	(-0.0169275754541 0.25826489366 -0.965925826289)
Total omega : 12.5663706144

Courant Number mean: 0 max: 0

Starting time loop

Sampled set:
    data -> csv

Sampled set:
    data -> csv

Sampled surface:
    yNormal -> ensight
        sampledCuttingPlane: yNormal : plane:(0 1 0) (0 0 0) offsets:(0)

Sampled surface:
    zNormal -> ensight
        sampledCuttingPlane: zNormal : plane:(0 0 1) (0 0 0) offsets:(0)

Sampled surface:
    patchAll -> ensight
        sampledPatch: patchAll : patches:(".*WW.*")

deltaT = 1
Time = 1

PIMPLE: iteration 1
Radiation solver iter: 0
DILUPBiCGStab:  Solving for ILambda_0_0, Initial residual = 1, Final residual = 1.25331428374e-63, No Iterations 2
DILUPBiCGStab:  Solving for ILambda_1_0, Initial residual = 1, Final residual = 3.8583183718e-63, No Iterations 2
DILUPBiCGStab:  Solving for ILambda_2_0, Initial residual = 1, Final residual = 2.80653470728e-63, No Iterations 2
DILUPBiCGStab:  Solving for ILambda_3_0, Initial residual = 1, Final residual = 1.41160238745e-63, No Iterations 2
DILUPBiCGStab:  Solving for ILambda_4_0, Initial residual = 1, Final residual = 5.01864599768e-64, No Iterations 2
DILUPBiCGStab:  Solving for ILambda_5_0, Initial residual = 1, Final residual = 8.12450082573e-64, No Iterations 2
DILUPBiCGStab:  Solving for ILambda_6_0, Initial residual = 1, Final residual = 5.94847666598e-64, No Iterations 2
DILUPBiCGStab:  Solving for ILambda_7_0, Initial residual = 1, Final residual = 7.01209524042e-62, No Iterations 2
DILUPBiCGStab:  Solving for ILambda_8_0, Initial residual = 1, Final residual = 5.2693735307e-64, No Iterations 2
DILUPBiCGStab:  Solving for ILambda_9_0, Initial residual = 1, Final residual = 4.79984166725e-64, No Iterations 2
DILUPBiCGStab:  Solving for ILambda_10_0, Initial residual = 1, Final residual = 3.43271212392e-64, No Iterations 2
DILUPBiCGStab:  Solving for ILambda_11_0, Initial residual = 1, Final residual = 2.259187339e-63, No Iterations 2
DILUPBiCGStab:  Solving for ILambda_12_0, Initial residual = 1, Final residual = 1.82120033536e-62, No Iterations 18
DILUPBiCGStab:  Solving for ILambda_13_0, Initial residual = 1, Final residual = 2.49253082788e-61, No Iterations 21
DILUPBiCGStab:  Solving for ILambda_14_0, Initial residual = 1, Final residual = 4.314940921e-61, No Iterations 22
DILUPBiCGStab:  Solving for ILambda_15_0, Initial residual = 1, Final residual = 8.75730948081e-62, No Iterations 23
DILUPBiCGStab:  Solving for ILambda_16_0, Initial residual = 1, Final residual = 3.16275042404e-61, No Iterations 24
DILUPBiCGStab:  Solving for ILambda_17_0, Initial residual = 1, Final residual = 1.2488515375e-61, No Iterations 25
DILUPBiCGStab:  Solving for ILambda_18_0, Initial residual = 1, Final residual = 9.19325050134e-61, No Iterations 24
DILUPBiCGStab:  Solving for ILambda_19_0, Initial residual = 1, Final residual = 9.9470528082e-61, No Iterations 24
DILUPBiCGStab:  Solving for ILambda_20_0, Initial residual = 1, Final residual = 3.0286642903e-61, No Iterations 23
DILUPBiCGStab:  Solving for ILambda_21_0, Initial residual = 1, Final residual = 1.09461411509e-64, No Iterations 23
DILUPBiCGStab:  Solving for ILambda_22_0, Initial residual = 1, Final residual = 4.68765491442e-61, No Iterations 21
DILUPBiCGStab:  Solving for ILambda_23_0, Initial residual = 1, Final residual = 4.9282785722e-61, No Iterations 18
DILUPBiCGStab:  Solving for ILambda_24_0, Initial residual = 1, Final residual = 5.09963867064e-61, No Iterations 15
DILUPBiCGStab:  Solving for ILambda_25_0, Initial residual = 1, Final residual = 1.05925809543e-64, No Iterations 14
DILUPBiCGStab:  Solving for ILambda_26_0, Initial residual = 1, Final residual = 2.61989009815e-65, No Iterations 14
DILUPBiCGStab:  Solving for ILambda_27_0, Initial residual = 1, Final residual = 9.18352226666e-63, No Iterations 16
DILUPBiCGStab:  Solving for ILambda_28_0, Initial residual = 1, Final residual = 2.4046539199e-62, No Iterations 18
DILUPBiCGStab:  Solving for ILambda_29_0, Initial residual = 1, Final residual = 1.85695054892e-61, No Iterations 16
DILUPBiCGStab:  Solving for ILambda_30_0, Initial residual = 1, Final residual = 5.74270382956e-63, No Iterations 16
DILUPBiCGStab:  Solving for ILambda_31_0, Initial residual = 1, Final residual = 7.67086238971e-62, No Iterations 15
DILUPBiCGStab:  Solving for ILambda_32_0, Initial residual = 1, Final residual = 7.71262762992e-62, No Iterations 17
DILUPBiCGStab:  Solving for ILambda_33_0, Initial residual = 1, Final residual = 2.71324751934e-61, No Iterations 15
DILUPBiCGStab:  Solving for ILambda_34_0, Initial residual = 1, Final residual = 3.46503314967e-63, No Iterations 16
DILUPBiCGStab:  Solving for ILambda_35_0, Initial residual = 1, Final residual = 1.88648998706e-61, No Iterations 14
DILUPBiCGStab:  Solving for ILambda_36_0, Initial residual = 1, Final residual = 4.99859186002e-61, No Iterations 18
DILUPBiCGStab:  Solving for ILambda_37_0, Initial residual = 1, Final residual = 4.65143942353e-61, No Iterations 21
DILUPBiCGStab:  Solving for ILambda_38_0, Initial residual = 1, Final residual = 4.30794416407e-65, No Iterations 23
DILUPBiCGStab:  Solving for ILambda_39_0, Initial residual = 1, Final residual = 3.95408826106e-61, No Iterations 23
DILUPBiCGStab:  Solving for ILambda_40_0, Initial residual = 1, Final residual = 6.13350113669e-61, No Iterations 24
DILUPBiCGStab:  Solving for ILambda_41_0, Initial residual = 1, Final residual = 3.78615139184e-61, No Iterations 24
DILUPBiCGStab:  Solving for ILambda_42_0, Initial residual = 1, Final residual = 4.36432772858e-61, No Iterations 25
DILUPBiCGStab:  Solving for ILambda_43_0, Initial residual = 1, Final residual = 3.13665806671e-61, No Iterations 24
DILUPBiCGStab:  Solving for ILambda_44_0, Initial residual = 1, Final residual = 9.84625377547e-61, No Iterations 23
DILUPBiCGStab:  Solving for ILambda_45_0, Initial residual = 1, Final residual = 3.49757033037e-61, No Iterations 22
DILUPBiCGStab:  Solving for ILambda_46_0, Initial residual = 1, Final residual = 2.49253355109e-61, No Iterations 21
DILUPBiCGStab:  Solving for ILambda_47_0, Initial residual = 1, Final residual = 1.82120095533e-62, No Iterations 18
DILUPBiCGStab:  Solving for ILambda_48_0, Initial residual = 1, Final residual = 1.04059177462e-62, No Iterations 2
DILUPBiCGStab:  Solving for ILambda_49_0, Initial residual = 1, Final residual = 3.00699517616e-63, No Iterations 2
DILUPBiCGStab:  Solving for ILambda_50_0, Initial residual = 1, Final residual = 9.97987323151e-63, No Iterations 2
DILUPBiCGStab:  Solving for ILambda_51_0, Initial residual = 1, Final residual = 4.65498614394e-62, No Iterations 2
DILUPBiCGStab:  Solving for ILambda_52_0, Initial residual = 1, Final residual = 2.14697717108e-62, No Iterations 2
DILUPBiCGStab:  Solving for ILambda_53_0, Initial residual = 1, Final residual = 4.39933263716e-62, No Iterations 2
DILUPBiCGStab:  Solving for ILambda_54_0, Initial residual = 1, Final residual = 1.72509005267e-62, No Iterations 2
DILUPBiCGStab:  Solving for ILambda_55_0, Initial residual = 1, Final residual = 5.10445761368e-63, No Iterations 2
DILUPBiCGStab:  Solving for ILambda_56_0, Initial residual = 1, Final residual = 2.55150919041e-63, No Iterations 2
DILUPBiCGStab:  Solving for ILambda_57_0, Initial residual = 1, Final residual = 3.09521667167e-62, No Iterations 2
DILUPBiCGStab:  Solving for ILambda_58_0, Initial residual = 1, Final residual = 3.84427675712e-63, No Iterations 2
DILUPBiCGStab:  Solving for ILambda_59_0, Initial residual = 1, Final residual = 4.56277473274e-62, No Iterations 2
DILUPBiCGStab:  Solving for ILambda_60_0, Initial residual = 1, Final residual = 6.17233316996e-61, No Iterations 20
DILUPBiCGStab:  Solving for ILambda_61_0, Initial residual = 1, Final residual = 6.14801779322e-62, No Iterations 24
DILUPBiCGStab:  Solving for ILambda_62_0, Initial residual = 1, Final residual = 3.94226234518e-62, No Iterations 26
DILUPBiCGStab:  Solving for ILambda_63_0, Initial residual = 1, Final residual = 8.31335785251e-62, No Iterations 28
DILUPBiCGStab:  Solving for ILambda_64_0, Initial residual = 1, Final residual = 8.78379461478e-61, No Iterations 28
DILUPBiCGStab:  Solving for ILambda_65_0, Initial residual = 1, Final residual = 8.59462528101e-61, No Iterations 28
DILUPBiCGStab:  Solving for ILambda_66_0, Initial residual = 1, Final residual = 6.43495818307e-61, No Iterations 28
DILUPBiCGStab:  Solving for ILambda_67_0, Initial residual = 1, Final residual = 1.30134654797e-61, No Iterations 29
DILUPBiCGStab:  Solving for ILambda_68_0, Initial residual = 1, Final residual = 2.86607113299e-63, No Iterations 28
DILUPBiCGStab:  Solving for ILambda_69_0, Initial residual = 1, Final residual = 1.93237324236e-61, No Iterations 26
DILUPBiCGStab:  Solving for ILambda_70_0, Initial residual = 1, Final residual = 1.16870775595e-61, No Iterations 24
DILUPBiCGStab:  Solving for ILambda_71_0, Initial residual = 1, Final residual = 2.19574013682e-63, No Iterations 21
DILUPBiCGStab:  Solving for ILambda_72_0, Initial residual = 1, Final residual = 3.09283287213e-61, No Iterations 17
DILUPBiCGStab:  Solving for ILambda_73_0, Initial residual = 1, Final residual = 3.41260519237e-61, No Iterations 14
DILUPBiCGStab:  Solving for ILambda_74_0, Initial residual = 1, Final residual = 1.67423453197e-65, No Iterations 14
DILUPBiCGStab:  Solving for ILambda_75_0, Initial residual = 1, Final residual = 7.24847452248e-62, No Iterations 17
DILUPBiCGStab:  Solving for ILambda_76_0, Initial residual = 1, Final residual = 5.03789621876e-62, No Iterations 15
DILUPBiCGStab:  Solving for ILambda_77_0, Initial residual = 1, Final residual = 3.43078382994e-63, No Iterations 16
DILUPBiCGStab:  Solving for ILambda_78_0, Initial residual = 1, Final residual = 1.98941034694e-62, No Iterations 14
DILUPBiCGStab:  Solving for ILambda_79_0, Initial residual = 1, Final residual = 9.8618278563e-62, No Iterations 17
DILUPBiCGStab:  Solving for ILambda_80_0, Initial residual = 1, Final residual = 6.0857692611e-61, No Iterations 18
DILUPBiCGStab:  Solving for ILambda_81_0, Initial residual = 1, Final residual = 4.05525264414e-61, No Iterations 14
DILUPBiCGStab:  Solving for ILambda_82_0, Initial residual = 1, Final residual = 7.90614590945e-62, No Iterations 14
DILUPBiCGStab:  Solving for ILambda_83_0, Initial residual = 1, Final residual = 7.15592944543e-63, No Iterations 16
DILUPBiCGStab:  Solving for ILambda_84_0, Initial residual = 1, Final residual = 4.36583254752e-63, No Iterations 21
DILUPBiCGStab:  Solving for ILambda_85_0, Initial residual = 1, Final residual = 9.66196892441e-62, No Iterations 24
DILUPBiCGStab:  Solving for ILambda_86_0, Initial residual = 1, Final residual = 3.62833944522e-62, No Iterations 26
DILUPBiCGStab:  Solving for ILambda_87_0, Initial residual = 1, Final residual = 3.70588978413e-61, No Iterations 27
DILUPBiCGStab:  Solving for ILambda_88_0, Initial residual = 1, Final residual = 7.69976670475e-61, No Iterations 28
DILUPBiCGStab:  Solving for ILambda_89_0, Initial residual = 1, Final residual = 3.26703097535e-61, No Iterations 28
DILUPBiCGStab:  Solving for ILambda_90_0, Initial residual = 1, Final residual = 1.54947412612e-61, No Iterations 28
DILUPBiCGStab:  Solving for ILambda_91_0, Initial residual = 1, Final residual = 6.76005555164e-62, No Iterations 29
DILUPBiCGStab:  Solving for ILambda_92_0, Initial residual = 1, Final residual = 2.72783553642e-61, No Iterations 28
DILUPBiCGStab:  Solving for ILambda_93_0, Initial residual = 1, Final residual = 1.22720962463e-61, No Iterations 26
DILUPBiCGStab:  Solving for ILambda_94_0, Initial residual = 1, Final residual = 1.37073360835e-61, No Iterations 24
DILUPBiCGStab:  Solving for ILambda_95_0, Initial residual = 1, Final residual = 6.16959749655e-61, No Iterations 20
DILUPBiCGStab:  Solving for ILambda_96_0, Initial residual = 1, Final residual = 2.82574203462e-63, No Iterations 2
DILUPBiCGStab:  Solving for ILambda_97_0, Initial residual = 1, Final residual = 4.45477079592e-63, No Iterations 2
DILUPBiCGStab:  Solving for ILambda_98_0, Initial residual = 1, Final residual = 1.75527048807e-63, No Iterations 2
DILUPBiCGStab:  Solving for ILambda_99_0, Initial residual = 1, Final residual = 3.20673784431e-63, No Iterations 2
DILUPBiCGStab:  Solving for ILambda_100_0, Initial residual = 1, Final residual = 3.36438724071e-63, No Iterations 2
DILUPBiCGStab:  Solving for ILambda_101_0, Initial residual = 1, Final residual = 6.21484506851e-63, No Iterations 2
DILUPBiCGStab:  Solving for ILambda_102_0, Initial residual = 1, Final residual = 2.47185143822e-63, No Iterations 2
DILUPBiCGStab:  Solving for ILambda_103_0, Initial residual = 1, Final residual = 2.1024999087e-63, No Iterations 2
DILUPBiCGStab:  Solving for ILambda_104_0, Initial residual = 1, Final residual = 3.20625134316e-63, No Iterations 2
DILUPBiCGStab:  Solving for ILambda_105_0, Initial residual = 1, Final residual = 1.47472329712e-63, No Iterations 2
DILUPBiCGStab:  Solving for ILambda_106_0, Initial residual = 1, Final residual = 2.61590113033e-63, No Iterations 2
DILUPBiCGStab:  Solving for ILambda_107_0, Initial residual = 1, Final residual = 2.49823622425e-63, No Iterations 2
DILUPBiCGStab:  Solving for ILambda_108_0, Initial residual = 1, Final residual = 7.75971841781e-62, No Iterations 21
DILUPBiCGStab:  Solving for ILambda_109_0, Initial residual = 1, Final residual = 3.79780048196e-62, No Iterations 26
DILUPBiCGStab:  Solving for ILambda_110_0, Initial residual = 1, Final residual = 8.12251628921e-62, No Iterations 28
DILUPBiCGStab:  Solving for ILambda_111_0, Initial residual = 1, Final residual = 2.47703636385e-62, No Iterations 29
DILUPBiCGStab:  Solving for ILambda_112_0, Initial residual = 1, Final residual = 8.2175650522e-61, No Iterations 29
DILUPBiCGStab:  Solving for ILambda_113_0, Initial residual = 1, Final residual = 1.87345643518e-61, No Iterations 31
DILUPBiCGStab:  Solving for ILambda_114_0, Initial residual = 1, Final residual = 1.14959841675e-61, No Iterations 31
DILUPBiCGStab:  Solving for ILambda_115_0, Initial residual = 1, Final residual = 2.46100919205e-61, No Iterations 30
DILUPBiCGStab:  Solving for ILambda_116_0, Initial residual = 1, Final residual = 3.97601029178e-61, No Iterations 29
DILUPBiCGStab:  Solving for ILambda_117_0, Initial residual = 1, Final residual = 5.91597063525e-62, No Iterations 28
DILUPBiCGStab:  Solving for ILambda_118_0, Initial residual = 1, Final residual = 7.52805818727e-62, No Iterations 26
DILUPBiCGStab:  Solving for ILambda_119_0, Initial residual = 1, Final residual = 9.61011546348e-63, No Iterations 21
DILUPBiCGStab:  Solving for ILambda_120_0, Initial residual = 1, Final residual = 5.92366768388e-64, No Iterations 15
DILUPBiCGStab:  Solving for ILambda_121_0, Initial residual = 1, Final residual = 8.55180350986e-62, No Iterations 14
DILUPBiCGStab:  Solving for ILambda_122_0, Initial residual = 1, Final residual = 9.5937204458e-62, No Iterations 18
DILUPBiCGStab:  Solving for ILambda_123_0, Initial residual = 1, Final residual = 1.97649378527e-62, No Iterations 17
DILUPBiCGStab:  Solving for ILambda_124_0, Initial residual = 1, Final residual = 8.72575273949e-61, No Iterations 18
DILUPBiCGStab:  Solving for ILambda_125_0, Initial residual = 1, Final residual = 7.52737375824e-62, No Iterations 18
DILUPBiCGStab:  Solving for ILambda_126_0, Initial residual = 1, Final residual = 4.04280480284e-63, No Iterations 17
DILUPBiCGStab:  Solving for ILambda_127_0, Initial residual = 1, Final residual = 1.30578567513e-61, No Iterations 16
DILUPBiCGStab:  Solving for ILambda_128_0, Initial residual = 1, Final residual = 1.72796769717e-61, No Iterations 17
DILUPBiCGStab:  Solving for ILambda_129_0, Initial residual = 1, Final residual = 5.73357901355e-62, No Iterations 11
DILUPBiCGStab:  Solving for ILambda_130_0, Initial residual = 1, Final residual = 5.7832241564e-62, No Iterations 18
DILUPBiCGStab:  Solving for ILambda_131_0, Initial residual = 1, Final residual = 3.06903108848e-61, No Iterations 15
DILUPBiCGStab:  Solving for ILambda_132_0, Initial residual = 1, Final residual = 1.17971922858e-62, No Iterations 21
DILUPBiCGStab:  Solving for ILambda_133_0, Initial residual = 1, Final residual = 1.46136833596e-61, No Iterations 26
DILUPBiCGStab:  Solving for ILambda_134_0, Initial residual = 1, Final residual = 7.3181199229e-62, No Iterations 28
DILUPBiCGStab:  Solving for ILambda_135_0, Initial residual = 1, Final residual = 3.27404483925e-61, No Iterations 29
DILUPBiCGStab:  Solving for ILambda_136_0, Initial residual = 1, Final residual = 2.40549330048e-61, No Iterations 29
DILUPBiCGStab:  Solving for ILambda_137_0, Initial residual = 1, Final residual = 9.05419090221e-62, No Iterations 31
DILUPBiCGStab:  Solving for ILambda_138_0, Initial residual = 1, Final residual = 2.63318495313e-61, No Iterations 30
DILUPBiCGStab:  Solving for ILambda_139_0, Initial residual = 1, Final residual = 2.14982421441e-61, No Iterations 30
DILUPBiCGStab:  Solving for ILambda_140_0, Initial residual = 1, Final residual = 4.75621782793e-61, No Iterations 28
DILUPBiCGStab:  Solving for ILambda_141_0, Initial residual = 1, Final residual = 5.40467408539e-61, No Iterations 27
DILUPBiCGStab:  Solving for ILambda_142_0, Initial residual = 1, Final residual = 7.66231637787e-62, No Iterations 26
DILUPBiCGStab:  Solving for ILambda_143_0, Initial residual = 1, Final residual = 5.46682636264e-62, No Iterations 21
DILUPBiCGStab:  Solving for ILambda_144_0, Initial residual = 1, Final residual = 9.14770111464e-61, No Iterations 17
DILUPBiCGStab:  Solving for ILambda_145_0, Initial residual = 1, Final residual = 7.11076391953e-61, No Iterations 14
DILUPBiCGStab:  Solving for ILambda_146_0, Initial residual = 1, Final residual = 9.19665324667e-61, No Iterations 17
DILUPBiCGStab:  Solving for ILambda_147_0, Initial residual = 1, Final residual = 6.5148497834e-62, No Iterations 18
DILUPBiCGStab:  Solving for ILambda_148_0, Initial residual = 1, Final residual = 1.70772014213e-61, No Iterations 16
DILUPBiCGStab:  Solving for ILambda_149_0, Initial residual = 1, Final residual = 1.31045197482e-61, No Iterations 18
DILUPBiCGStab:  Solving for ILambda_150_0, Initial residual = 1, Final residual = 3.63674961187e-61, No Iterations 17
DILUPBiCGStab:  Solving for ILambda_151_0, Initial residual = 1, Final residual = 5.93657239732e-61, No Iterations 18
DILUPBiCGStab:  Solving for ILambda_152_0, Initial residual = 1, Final residual = 1.68352308698e-61, No Iterations 18
DILUPBiCGStab:  Solving for ILambda_153_0, Initial residual = 1, Final residual = 9.80127443032e-64, No Iterations 16
DILUPBiCGStab:  Solving for ILambda_154_0, Initial residual = 1, Final residual = 5.03700452024e-62, No Iterations 17
DILUPBiCGStab:  Solving for ILambda_155_0, Initial residual = 1, Final residual = 3.06983759703e-62, No Iterations 19
DILUPBiCGStab:  Solving for ILambda_156_0, Initial residual = 1, Final residual = 3.16357355145e-62, No Iterations 22
DILUPBiCGStab:  Solving for ILambda_157_0, Initial residual = 1, Final residual = 1.83746739925e-61, No Iterations 28
DILUPBiCGStab:  Solving for ILambda_158_0, Initial residual = 1, Final residual = 1.53134502778e-61, No Iterations 29
DILUPBiCGStab:  Solving for ILambda_159_0, Initial residual = 1, Final residual = 1.7911224561e-61, No Iterations 30
DILUPBiCGStab:  Solving for ILambda_160_0, Initial residual = 1, Final residual = 1.07746508968e-61, No Iterations 30
DILUPBiCGStab:  Solving for ILambda_161_0, Initial residual = 1, Final residual = 4.80917315705e-62, No Iterations 31
DILUPBiCGStab:  Solving for ILambda_162_0, Initial residual = 1, Final residual = 6.47225030995e-62, No Iterations 31
DILUPBiCGStab:  Solving for ILambda_163_0, Initial residual = 1, Final residual = 9.48797899148e-62, No Iterations 29
DILUPBiCGStab:  Solving for ILambda_164_0, Initial residual = 1, Final residual = 4.63284670305e-62, No Iterations 29
DILUPBiCGStab:  Solving for ILambda_165_0, Initial residual = 1, Final residual = 3.50463248091e-62, No Iterations 28
DILUPBiCGStab:  Solving for ILambda_166_0, Initial residual = 1, Final residual = 2.02818017635e-62, No Iterations 26
DILUPBiCGStab:  Solving for ILambda_167_0, Initial residual = 1, Final residual = 7.68758949975e-62, No Iterations 21
DILUPBiCGStab:  Solving for ILambda_168_0, Initial residual = 1, Final residual = 5.23573613438e-63, No Iterations 2
DILUPBiCGStab:  Solving for ILambda_169_0, Initial residual = 1, Final residual = 3.66563550017e-63, No Iterations 2
DILUPBiCGStab:  Solving for ILambda_170_0, Initial residual = 1, Final residual = 1.60535783791e-63, No Iterations 2
DILUPBiCGStab:  Solving for ILambda_171_0, Initial residual = 1, Final residual = 2.55323510802e-63, No Iterations 2
DILUPBiCGStab:  Solving for ILambda_172_0, Initial residual = 1, Final residual = 1.48073435106e-63, No Iterations 2
DILUPBiCGStab:  Solving for ILambda_173_0, Initial residual = 1, Final residual = 1.72036621138e-63, No Iterations 2
DILUPBiCGStab:  Solving for ILambda_174_0, Initial residual = 1, Final residual = 1.58220698364e-63, No Iterations 2
DILUPBiCGStab:  Solving for ILambda_175_0, Initial residual = 1, Final residual = 1.42284402912e-63, No Iterations 2
DILUPBiCGStab:  Solving for ILambda_176_0, Initial residual = 1, Final residual = 3.01591557629e-63, No Iterations 2
DILUPBiCGStab:  Solving for ILambda_177_0, Initial residual = 1, Final residual = 3.09165668755e-63, No Iterations 2
DILUPBiCGStab:  Solving for ILambda_178_0, Initial residual = 1, Final residual = 3.8420047245e-63, No Iterations 2
DILUPBiCGStab:  Solving for ILambda_179_0, Initial residual = 1, Final residual = 1.65748506625e-63, No Iterations 2
DILUPBiCGStab:  Solving for ILambda_180_0, Initial residual = 1, Final residual = 6.33301545198e-62, No Iterations 21
DILUPBiCGStab:  Solving for ILambda_181_0, Initial residual = 1, Final residual = 3.27688933513e-61, No Iterations 25
DILUPBiCGStab:  Solving for ILambda_182_0, Initial residual = 1, Final residual = 6.10965944632e-62, No Iterations 28
DILUPBiCGStab:  Solving for ILambda_183_0, Initial residual = 1, Final residual = 5.61962362406e-61, No Iterations 28
DILUPBiCGStab:  Solving for ILambda_184_0, Initial residual = 1, Final residual = 2.04554563542e-61, No Iterations 29
DILUPBiCGStab:  Solving for ILambda_185_0, Initial residual = 1, Final residual = 2.0186751453e-61, No Iterations 30
DILUPBiCGStab:  Solving for ILambda_186_0, Initial residual = 1, Final residual = 1.00477631511e-61, No Iterations 31
DILUPBiCGStab:  Solving for ILambda_187_0, Initial residual = 1, Final residual = 5.51590691985e-62, No Iterations 30
DILUPBiCGStab:  Solving for ILambda_188_0, Initial residual = 1, Final residual = 5.35652581819e-62, No Iterations 30
DILUPBiCGStab:  Solving for ILambda_189_0, Initial residual = 1, Final residual = 4.92267814341e-62, No Iterations 29
DILUPBiCGStab:  Solving for ILambda_190_0, Initial residual = 1, Final residual = 2.72298650919e-63, No Iterations 29
DILUPBiCGStab:  Solving for ILambda_191_0, Initial residual = 1, Final residual = 4.17561908983e-62, No Iterations 22
DILUPBiCGStab:  Solving for ILambda_192_0, Initial residual = 1, Final residual = 9.38153127969e-61, No Iterations 17
DILUPBiCGStab:  Solving for ILambda_193_0, Initial residual = 1, Final residual = 3.45293358173e-61, No Iterations 18
DILUPBiCGStab:  Solving for ILambda_194_0, Initial residual = 1, Final residual = 2.18210908215e-62, No Iterations 18
DILUPBiCGStab:  Solving for ILambda_195_0, Initial residual = 1, Final residual = 5.47135161361e-61, No Iterations 22
DILUPBiCGStab:  Solving for ILambda_196_0, Initial residual = 1, Final residual = 5.01542961499e-62, No Iterations 16
DILUPBiCGStab:  Solving for ILambda_197_0, Initial residual = 1, Final residual = 4.666947341e-63, No Iterations 19
DILUPBiCGStab:  Solving for ILambda_198_0, Initial residual = 1, Final residual = 1.45533956663e-61, No Iterations 18
DILUPBiCGStab:  Solving for ILambda_199_0, Initial residual = 1, Final residual = 4.97044828564e-62, No Iterations 21
DILUPBiCGStab:  Solving for ILambda_200_0, Initial residual = 1, Final residual = 1.30334760579e-63, No Iterations 18
DILUPBiCGStab:  Solving for ILambda_201_0, Initial residual = 1, Final residual = 8.72912349348e-61, No Iterations 16
DILUPBiCGStab:  Solving for ILambda_202_0, Initial residual = 1, Final residual = 7.99343214563e-61, No Iterations 15
DILUPBiCGStab:  Solving for ILambda_203_0, Initial residual = 1, Final residual = 1.5424236489e-62, No Iterations 23
DILUPBiCGStab:  Solving for ILambda_204_0, Initial residual = 1, Final residual = 2.85210582344e-62, No Iterations 21
DILUPBiCGStab:  Solving for ILambda_205_0, Initial residual = 1, Final residual = 1.15104774851e-61, No Iterations 25
DILUPBiCGStab:  Solving for ILambda_206_0, Initial residual = 1, Final residual = 1.570321593e-61, No Iterations 27
DILUPBiCGStab:  Solving for ILambda_207_0, Initial residual = 1, Final residual = 1.69574434949e-61, No Iterations 28
DILUPBiCGStab:  Solving for ILambda_208_0, Initial residual = 1, Final residual = 8.34231747714e-62, No Iterations 29
DILUPBiCGStab:  Solving for ILambda_209_0, Initial residual = 1, Final residual = 3.58686806822e-62, No Iterations 29
DILUPBiCGStab:  Solving for ILambda_210_0, Initial residual = 1, Final residual = 6.57354108296e-61, No Iterations 29
DILUPBiCGStab:  Solving for ILambda_211_0, Initial residual = 1, Final residual = 1.12696205735e-61, No Iterations 29
DILUPBiCGStab:  Solving for ILambda_212_0, Initial residual = 1, Final residual = 2.31978637994e-61, No Iterations 27
DILUPBiCGStab:  Solving for ILambda_213_0, Initial residual = 1, Final residual = 3.77696972725e-61, No Iterations 27
DILUPBiCGStab:  Solving for ILambda_214_0, Initial residual = 1, Final residual = 6.25468757028e-61, No Iterations 24
DILUPBiCGStab:  Solving for ILambda_215_0, Initial residual = 1, Final residual = 3.01265530179e-62, No Iterations 20
DILUPBiCGStab:  Solving for ILambda_216_0, Initial residual = 1, Final residual = 1.031771176e-62, No Iterations 2
DILUPBiCGStab:  Solving for ILambda_217_0, Initial residual = 1, Final residual = 2.9674372414e-63, No Iterations 2
DILUPBiCGStab:  Solving for ILambda_218_0, Initial residual = 1, Final residual = 3.85597409838e-63, No Iterations 2
DILUPBiCGStab:  Solving for ILambda_219_0, Initial residual = 1, Final residual = 2.12597568976e-63, No Iterations 2
DILUPBiCGStab:  Solving for ILambda_220_0, Initial residual = 1, Final residual = 1.83065244052e-74, No Iterations 3
DILUPBiCGStab:  Solving for ILambda_221_0, Initial residual = 1, Final residual = 6.32844605286e-63, No Iterations 2
DILUPBiCGStab:  Solving for ILambda_222_0, Initial residual = 1, Final residual = 6.92528067068e-63, No Iterations 2
DILUPBiCGStab:  Solving for ILambda_223_0, Initial residual = 1, Final residual = 1.50310334788e-63, No Iterations 2
DILUPBiCGStab:  Solving for ILambda_224_0, Initial residual = 1, Final residual = 1.45962237173e-63, No Iterations 2
DILUPBiCGStab:  Solving for ILambda_225_0, Initial residual = 1, Final residual = 3.279651027e-62, No Iterations 2
DILUPBiCGStab:  Solving for ILambda_226_0, Initial residual = 1, Final residual = 1.64170944754e-63, No Iterations 2
DILUPBiCGStab:  Solving for ILambda_227_0, Initial residual = 1, Final residual = 1.89191853927e-63, No Iterations 2
DILUPBiCGStab:  Solving for ILambda_228_0, Initial residual = 1, Final residual = 2.99986998017e-62, No Iterations 20
DILUPBiCGStab:  Solving for ILambda_229_0, Initial residual = 1, Final residual = 2.86855278836e-62, No Iterations 24
DILUPBiCGStab:  Solving for ILambda_230_0, Initial residual = 1, Final residual = 2.30875517396e-61, No Iterations 27
DILUPBiCGStab:  Solving for ILambda_231_0, Initial residual = 1, Final residual = 5.52816252338e-62, No Iterations 27
DILUPBiCGStab:  Solving for ILambda_232_0, Initial residual = 1, Final residual = 1.46450422847e-61, No Iterations 29
DILUPBiCGStab:  Solving for ILambda_233_0, Initial residual = 1, Final residual = 1.75314275875e-61, No Iterations 29
DILUPBiCGStab:  Solving for ILambda_234_0, Initial residual = 1, Final residual = 5.60722119888e-62, No Iterations 29
DILUPBiCGStab:  Solving for ILambda_235_0, Initial residual = 1, Final residual = 5.37331791925e-61, No Iterations 29
DILUPBiCGStab:  Solving for ILambda_236_0, Initial residual = 1, Final residual = 7.7865789205e-62, No Iterations 28
DILUPBiCGStab:  Solving for ILambda_237_0, Initial residual = 1, Final residual = 6.10695635681e-61, No Iterations 27
DILUPBiCGStab:  Solving for ILambda_238_0, Initial residual = 1, Final residual = 4.28802217381e-61, No Iterations 26
DILUPBiCGStab:  Solving for ILambda_239_0, Initial residual = 1, Final residual = 2.85487559772e-62, No Iterations 21
DILUPBiCGStab:  Solving for ILambda_240_0, Initial residual = 1, Final residual = 4.17282723137e-62, No Iterations 19
DILUPBiCGStab:  Solving for ILambda_241_0, Initial residual = 1, Final residual = 1.66345834917e-61, No Iterations 16
DILUPBiCGStab:  Solving for ILambda_242_0, Initial residual = 1, Final residual = 2.80076941991e-62, No Iterations 19
DILUPBiCGStab:  Solving for ILambda_243_0, Initial residual = 1, Final residual = 7.9438662674e-62, No Iterations 17
DILUPBiCGStab:  Solving for ILambda_244_0, Initial residual = 1, Final residual = 5.08035062629e-61, No Iterations 19
DILUPBiCGStab:  Solving for ILambda_245_0, Initial residual = 1, Final residual = 2.00685777867e-63, No Iterations 16
DILUPBiCGStab:  Solving for ILambda_246_0, Initial residual = 1, Final residual = 7.6897342329e-61, No Iterations 18
DILUPBiCGStab:  Solving for ILambda_247_0, Initial residual = 1, Final residual = 2.84017202184e-62, No Iterations 20
DILUPBiCGStab:  Solving for ILambda_248_0, Initial residual = 1, Final residual = 1.55622044855e-65, No Iterations 15
DILUPBiCGStab:  Solving for ILambda_249_0, Initial residual = 1, Final residual = 8.76965615843e-64, No Iterations 18
DILUPBiCGStab:  Solving for ILambda_250_0, Initial residual = 1, Final residual = 7.57276861701e-61, No Iterations 18
DILUPBiCGStab:  Solving for ILambda_251_0, Initial residual = 1, Final residual = 1.02983527551e-61, No Iterations 17
DILUPBiCGStab:  Solving for ILambda_252_0, Initial residual = 1, Final residual = 2.06846136725e-62, No Iterations 19
DILUPBiCGStab:  Solving for ILambda_253_0, Initial residual = 1, Final residual = 1.00133049362e-64, No Iterations 23
DILUPBiCGStab:  Solving for ILambda_254_0, Initial residual = 1, Final residual = 3.18552916445e-66, No Iterations 24
DILUPBiCGStab:  Solving for ILambda_255_0, Initial residual = 1, Final residual = 1.541127714e-62, No Iterations 24
DILUPBiCGStab:  Solving for ILambda_256_0, Initial residual = 1, Final residual = 1.56574427265e-63, No Iterations 25
DILUPBiCGStab:  Solving for ILambda_257_0, Initial residual = 1, Final residual = 3.30383778213e-61, No Iterations 25
DILUPBiCGStab:  Solving for ILambda_258_0, Initial residual = 1, Final residual = 7.35163524988e-62, No Iterations 24
DILUPBiCGStab:  Solving for ILambda_259_0, Initial residual = 1, Final residual = 1.60808488519e-61, No Iterations 24
DILUPBiCGStab:  Solving for ILambda_260_0, Initial residual = 1, Final residual = 5.46985837041e-61, No Iterations 23
DILUPBiCGStab:  Solving for ILambda_261_0, Initial residual = 1, Final residual = 8.98396172618e-61, No Iterations 22
DILUPBiCGStab:  Solving for ILambda_262_0, Initial residual = 1, Final residual = 1.47081971937e-67, No Iterations 22
DILUPBiCGStab:  Solving for ILambda_263_0, Initial residual = 1, Final residual = 4.38515881074e-62, No Iterations 18
DILUPBiCGStab:  Solving for ILambda_264_0, Initial residual = 1, Final residual = 5.96912468994e-63, No Iterations 2
DILUPBiCGStab:  Solving for ILambda_265_0, Initial residual = 1, Final residual = 2.03109091666e-62, No Iterations 2
DILUPBiCGStab:  Solving for ILambda_266_0, Initial residual = 1, Final residual = 4.94988823915e-63, No Iterations 2
DILUPBiCGStab:  Solving for ILambda_267_0, Initial residual = 1, Final residual = 1.48628440465e-62, No Iterations 2
DILUPBiCGStab:  Solving for ILambda_268_0, Initial residual = 1, Final residual = 1.88596483049e-63, No Iterations 2
DILUPBiCGStab:  Solving for ILambda_269_0, Initial residual = 1, Final residual = 1.49743988702e-63, No Iterations 2
DILUPBiCGStab:  Solving for ILambda_270_0, Initial residual = 1, Final residual = 9.70732434636e-64, No Iterations 2
DILUPBiCGStab:  Solving for ILambda_271_0, Initial residual = 1, Final residual = 1.68711990127e-63, No Iterations 2
DILUPBiCGStab:  Solving for ILambda_272_0, Initial residual = 1, Final residual = 3.73668052089e-63, No Iterations 2
DILUPBiCGStab:  Solving for ILambda_273_0, Initial residual = 1, Final residual = 7.7764837127e-64, No Iterations 2
DILUPBiCGStab:  Solving for ILambda_274_0, Initial residual = 1, Final residual = 9.52231329922e-64, No Iterations 2
DILUPBiCGStab:  Solving for ILambda_275_0, Initial residual = 1, Final residual = 2.96490255669e-63, No Iterations 2
DILUPBiCGStab:  Solving for ILambda_276_0, Initial residual = 1, Final residual = 4.38515736066e-62, No Iterations 18
DILUPBiCGStab:  Solving for ILambda_277_0, Initial residual = 1, Final residual = 4.58278892093e-68, No Iterations 22
DILUPBiCGStab:  Solving for ILambda_278_0, Initial residual = 1, Final residual = 1.20417827294e-61, No Iterations 22
DILUPBiCGStab:  Solving for ILambda_279_0, Initial residual = 1, Final residual = 5.49770298399e-61, No Iterations 23
DILUPBiCGStab:  Solving for ILambda_280_0, Initial residual = 1, Final residual = 1.98859518067e-61, No Iterations 24
DILUPBiCGStab:  Solving for ILambda_281_0, Initial residual = 1, Final residual = 3.51783333558e-62, No Iterations 24
DILUPBiCGStab:  Solving for ILambda_282_0, Initial residual = 1, Final residual = 1.15102349688e-61, No Iterations 25
DILUPBiCGStab:  Solving for ILambda_283_0, Initial residual = 1, Final residual = 4.28111484507e-61, No Iterations 24
DILUPBiCGStab:  Solving for ILambda_284_0, Initial residual = 1, Final residual = 1.83605270233e-62, No Iterations 24
DILUPBiCGStab:  Solving for ILambda_285_0, Initial residual = 1, Final residual = 2.78562016281e-66, No Iterations 24
[...]
DILUPBiCGStab:  Solving for ILambda_140_0, Initial residual = 3.17575308287e-16, Final residual = 4.59570192917e-62, No Iterations 23
DILUPBiCGStab:  Solving for ILambda_141_0, Initial residual = 3.20316402194e-16, Final residual = 2.0398921961e-61, No Iterations 21
DILUPBiCGStab:  Solving for ILambda_142_0, Initial residual = 3.04848800865e-16, Final residual = 9.65720257811e-61, No Iterations 20
DILUPBiCGStab:  Solving for ILambda_143_0, Initial residual = 2.60730241802e-16, Final residual = 1.17854493177e-65, No Iterations 17
DILUPBiCGStab:  Solving for ILambda_144_0, Initial residual = 2.2300756852e-16, Final residual = 7.76719149595e-62, No Iterations 8
DILUPBiCGStab:  Solving for ILambda_145_0, Initial residual = 2.84877973834e-16, Final residual = 2.05937782529e-61, No Iterations 8
DILUPBiCGStab:  Solving for ILambda_146_0, Initial residual = 2.98779235787e-16, Final residual = 1.79205014103e-63, No Iterations 7
DILUPBiCGStab:  Solving for ILambda_147_0, Initial residual = 2.95254972193e-16, Final residual = 1.18203788777e-62, No Iterations 9
DILUPBiCGStab:  Solving for ILambda_148_0, Initial residual = 3.47988397819e-16, Final residual = 4.85000487287e-61, No Iterations 7
DILUPBiCGStab:  Solving for ILambda_149_0, Initial residual = 4.49669928915e-16, Final residual = 8.80509594627e-61, No Iterations 9
DILUPBiCGStab:  Solving for ILambda_150_0, Initial residual = 4.19256839383e-16, Final residual = 1.70282098197e-62, No Iterations 8
DILUPBiCGStab:  Solving for ILambda_151_0, Initial residual = 3.55428509851e-16, Final residual = 3.76865859755e-61, No Iterations 9
DILUPBiCGStab:  Solving for ILambda_152_0, Initial residual = 3.78597279773e-16, Final residual = 2.4690504276e-63, No Iterations 8
DILUPBiCGStab:  Solving for ILambda_153_0, Initial residual = 3.33630286881e-16, Final residual = 5.14327456676e-63, No Iterations 8
DILUPBiCGStab:  Solving for ILambda_154_0, Initial residual = 3.0954781899e-16, Final residual = 5.29896923528e-63, No Iterations 10
DILUPBiCGStab:  Solving for ILambda_155_0, Initial residual = 2.14327437817e-16, Final residual = 2.61306569046e-62, No Iterations 9
DILUPBiCGStab:  Solving for ILambda_156_0, Initial residual = 2.24508643754e-16, Final residual = 2.43537021859e-63, No Iterations 17
DILUPBiCGStab:  Solving for ILambda_157_0, Initial residual = 2.78808408755e-16, Final residual = 4.72684089969e-61, No Iterations 20
DILUPBiCGStab:  Solving for ILambda_158_0, Initial residual = 2.91534916178e-16, Final residual = 3.85853444023e-63, No Iterations 22
DILUPBiCGStab:  Solving for ILambda_159_0, Initial residual = 2.90686482349e-16, Final residual = 3.86551406505e-61, No Iterations 23
DILUPBiCGStab:  Solving for ILambda_160_0, Initial residual = 3.38002984303e-16, Final residual = 1.64014850066e-61, No Iterations 24
DILUPBiCGStab:  Solving for ILambda_161_0, Initial residual = 4.02810275945e-16, Final residual = 1.13135821908e-62, No Iterations 24
DILUPBiCGStab:  Solving for ILambda_162_0, Initial residual = 4.12860953602e-16, Final residual = 1.65647799092e-61, No Iterations 24
DILUPBiCGStab:  Solving for ILambda_163_0, Initial residual = 3.65609715788e-16, Final residual = 1.38212324689e-61, No Iterations 24
DILUPBiCGStab:  Solving for ILambda_164_0, Initial residual = 3.7102663946e-16, Final residual = 1.97117510689e-62, No Iterations 23
DILUPBiCGStab:  Solving for ILambda_165_0, Initial residual = 3.24362778913e-16, Final residual = 2.09023395336e-61, No Iterations 21
DILUPBiCGStab:  Solving for ILambda_166_0, Initial residual = 2.93166519693e-16, Final residual = 3.21159773203e-61, No Iterations 20
DILUPBiCGStab:  Solving for ILambda_167_0, Initial residual = 2.60273392818e-16, Final residual = 3.02104219262e-61, No Iterations 16
DILUPBiCGStab:  Solving for ILambda_168_0, Initial residual = 2.17199060004e-16, Final residual = 8.43127622248e-64, No Iterations 2
DILUPBiCGStab:  Solving for ILambda_169_0, Initial residual = 3.13333139147e-16, Final residual = 1.57651035314e-63, No Iterations 2
DILUPBiCGStab:  Solving for ILambda_170_0, Initial residual = 3.63912848132e-16, Final residual = 1.15477684022e-63, No Iterations 2
DILUPBiCGStab:  Solving for ILambda_171_0, Initial residual = 3.66197093054e-16, Final residual = 1.14290541874e-63, No Iterations 2
DILUPBiCGStab:  Solving for ILambda_172_0, Initial residual = 3.59931735554e-16, Final residual = 1.08246979466e-62, No Iterations 2
DILUPBiCGStab:  Solving for ILambda_173_0, Initial residual = 4.18538933836e-16, Final residual = 1.31734004841e-63, No Iterations 2
DILUPBiCGStab:  Solving for ILambda_174_0, Initial residual = 4.22911631258e-16, Final residual = 1.82809951408e-63, No Iterations 2
DILUPBiCGStab:  Solving for ILambda_175_0, Initial residual = 3.52817944226e-16, Final residual = 1.00974040283e-63, No Iterations 2
DILUPBiCGStab:  Solving for ILambda_176_0, Initial residual = 3.03935102897e-16, Final residual = 9.22911649689e-64, No Iterations 2
DILUPBiCGStab:  Solving for ILambda_177_0, Initial residual = 2.78677880474e-16, Final residual = 8.44520511433e-64, No Iterations 2
DILUPBiCGStab:  Solving for ILambda_178_0, Initial residual = 2.8344216274e-16, Final residual = 1.62801601179e-63, No Iterations 2
DILUPBiCGStab:  Solving for ILambda_179_0, Initial residual = 2.0949789141e-16, Final residual = 1.07958186616e-63, No Iterations 2
DILUPBiCGStab:  Solving for ILambda_180_0, Initial residual = 2.29338190161e-16, Final residual = 4.23694579281e-63, No Iterations 17
DILUPBiCGStab:  Solving for ILambda_181_0, Initial residual = 2.86379049068e-16, Final residual = 8.76403750657e-62, No Iterations 20
DILUPBiCGStab:  Solving for ILambda_182_0, Initial residual = 3.30628136413e-16, Final residual = 7.17938963241e-61, No Iterations 22
DILUPBiCGStab:  Solving for ILambda_183_0, Initial residual = 3.48445246804e-16, Final residual = 4.22096573654e-61, No Iterations 22
DILUPBiCGStab:  Solving for ILambda_184_0, Initial residual = 3.38459833288e-16, Final residual = 1.6013655629e-61, No Iterations 23
DILUPBiCGStab:  Solving for ILambda_185_0, Initial residual = 4.21410556024e-16, Final residual = 4.46672148098e-62, No Iterations 24
DILUPBiCGStab:  Solving for ILambda_186_0, Initial residual = 4.21736876727e-16, Final residual = 2.8319820408e-61, No Iterations 25
DILUPBiCGStab:  Solving for ILambda_187_0, Initial residual = 3.42049361022e-16, Final residual = 1.4341577671e-61, No Iterations 24
DILUPBiCGStab:  Solving for ILambda_188_0, Initial residual = 3.26385967272e-16, Final residual = 9.98966020422e-62, No Iterations 22
DILUPBiCGStab:  Solving for ILambda_189_0, Initial residual = 2.75023088599e-16, Final residual = 4.50638110778e-62, No Iterations 22
DILUPBiCGStab:  Solving for ILambda_190_0, Initial residual = 2.86835898052e-16, Final residual = 1.25092070012e-61, No Iterations 20
DILUPBiCGStab:  Solving for ILambda_191_0, Initial residual = 2.20462267036e-16, Final residual = 3.14934157861e-62, No Iterations 16
DILUPBiCGStab:  Solving for ILambda_192_0, Initial residual = 7.99812043375e-17, Final residual = 2.54872007223e-61, No Iterations 9
DILUPBiCGStab:  Solving for ILambda_193_0, Initial residual = 8.7323420158e-17, Final residual = 4.60761157663e-62, No Iterations 9
DILUPBiCGStab:  Solving for ILambda_194_0, Initial residual = 9.83856919941e-17, Final residual = 8.92152897024e-61, No Iterations 9
DILUPBiCGStab:  Solving for ILambda_195_0, Initial residual = 9.39477304315e-17, Final residual = 1.25121916359e-62, No Iterations 9
DILUPBiCGStab:  Solving for ILambda_196_0, Initial residual = 1.08207945158e-16, Final residual = 6.12334359485e-62, No Iterations 9
DILUPBiCGStab:  Solving for ILambda_197_0, Initial residual = 1.12384850158e-16, Final residual = 3.92039433487e-61, No Iterations 8
DILUPBiCGStab:  Solving for ILambda_198_0, Initial residual = 1.13429076408e-16, Final residual = 1.41161431496e-63, No Iterations 9
DILUPBiCGStab:  Solving for ILambda_199_0, Initial residual = 1.14310142307e-16, Final residual = 1.49043177156e-63, No Iterations 9
DILUPBiCGStab:  Solving for ILambda_200_0, Initial residual = 1.07555303752e-16, Final residual = 1.01735357153e-62, No Iterations 10
DILUPBiCGStab:  Solving for ILambda_201_0, Initial residual = 1.25633470706e-16, Final residual = 1.68657114375e-62, No Iterations 9
DILUPBiCGStab:  Solving for ILambda_202_0, Initial residual = 1.08305841369e-16, Final residual = 1.81564924439e-62, No Iterations 8
DILUPBiCGStab:  Solving for ILambda_203_0, Initial residual = 7.98506760562e-17, Final residual = 2.45913080999e-62, No Iterations 9
DILUPBiCGStab:  Solving for ILambda_204_0, Initial residual = 8.44844300407e-17, Final residual = 6.47040164088e-61, No Iterations 15
DILUPBiCGStab:  Solving for ILambda_205_0, Initial residual = 8.32770434391e-17, Final residual = 4.90036120073e-61, No Iterations 19
DILUPBiCGStab:  Solving for ILambda_206_0, Initial residual = 1.00278352072e-16, Final residual = 3.50658274293e-61, No Iterations 21
DILUPBiCGStab:  Solving for ILambda_207_0, Initial residual = 9.87120126972e-17, Final residual = 2.36501197044e-62, No Iterations 22
DILUPBiCGStab:  Solving for ILambda_208_0, Initial residual = 1.04912106057e-16, Final residual = 1.69448664372e-61, No Iterations 22
DILUPBiCGStab:  Solving for ILambda_209_0, Initial residual = 1.02921549768e-16, Final residual = 1.01065409914e-61, No Iterations 22
DILUPBiCGStab:  Solving for ILambda_210_0, Initial residual = 1.15223840276e-16, Final residual = 2.45765385327e-63, No Iterations 22
DILUPBiCGStab:  Solving for ILambda_211_0, Initial residual = 1.24719772737e-16, Final residual = 3.51825234657e-61, No Iterations 21
DILUPBiCGStab:  Solving for ILambda_212_0, Initial residual = 1.19759698049e-16, Final residual = 8.23961320267e-62, No Iterations 21
DILUPBiCGStab:  Solving for ILambda_213_0, Initial residual = 1.17377556916e-16, Final residual = 3.94904366187e-62, No Iterations 20
DILUPBiCGStab:  Solving for ILambda_214_0, Initial residual = 9.98867672285e-17, Final residual = 7.10223690272e-62, No Iterations 19
DILUPBiCGStab:  Solving for ILambda_215_0, Initial residual = 9.76677864472e-17, Final residual = 4.63659302191e-62, No Iterations 16
DILUPBiCGStab:  Solving for ILambda_216_0, Initial residual = 9.44698435565e-17, Final residual = 2.65800234502e-64, No Iterations 2
DILUPBiCGStab:  Solving for ILambda_217_0, Initial residual = 9.7439361955e-17, Final residual = 2.58400165103e-64, No Iterations 2
DILUPBiCGStab:  Solving for ILambda_218_0, Initial residual = 1.23055537151e-16, Final residual = 8.3100383321e-64, No Iterations 2
DILUPBiCGStab:  Solving for ILambda_219_0, Initial residual = 1.14995415783e-16, Final residual = 2.56144625822e-64, No Iterations 2
DILUPBiCGStab:  Solving for ILambda_220_0, Initial residual = 1.09611124182e-16, Final residual = 3.30750588715e-64, No Iterations 2
DILUPBiCGStab:  Solving for ILambda_221_0, Initial residual = 9.62319753534e-17, Final residual = 2.67314867089e-64, No Iterations 2
DILUPBiCGStab:  Solving for ILambda_222_0, Initial residual = 1.03574191174e-16, Final residual = 4.93249481218e-64, No Iterations 2
DILUPBiCGStab:  Solving for ILambda_223_0, Initial residual = 1.12254321877e-16, Final residual = 3.83986317889e-64, No Iterations 2
DILUPBiCGStab:  Solving for ILambda_224_0, Initial residual = 9.5253013244e-17, Final residual = 2.31989546005e-64, No Iterations 2
DILUPBiCGStab:  Solving for ILambda_225_0, Initial residual = 9.52856453144e-17, Final residual = 2.57844101088e-64, No Iterations 2
DILUPBiCGStab:  Solving for ILambda_226_0, Initial residual = 9.10108441033e-17, Final residual = 2.39988266005e-64, No Iterations 2
DILUPBiCGStab:  Solving for ILambda_227_0, Initial residual = 8.37012603532e-17, Final residual = 3.22582061143e-64, No Iterations 2
DILUPBiCGStab:  Solving for ILambda_228_0, Initial residual = 9.42740511347e-17, Final residual = 5.73269467484e-62, No Iterations 16
DILUPBiCGStab:  Solving for ILambda_229_0, Initial residual = 8.9411872658e-17, Final residual = 7.27067848633e-61, No Iterations 19
DILUPBiCGStab:  Solving for ILambda_230_0, Initial residual = 1.21619726057e-16, Final residual = 5.65275499041e-61, No Iterations 21
DILUPBiCGStab:  Solving for ILambda_231_0, Initial residual = 1.12711170862e-16, Final residual = 6.24486804842e-62, No Iterations 21
DILUPBiCGStab:  Solving for ILambda_232_0, Initial residual = 1.20510235666e-16, Final residual = 1.43642788903e-61, No Iterations 22
DILUPBiCGStab:  Solving for ILambda_233_0, Initial residual = 1.0416156844e-16, Final residual = 7.22084227726e-61, No Iterations 22
DILUPBiCGStab:  Solving for ILambda_234_0, Initial residual = 1.07587935822e-16, Final residual = 4.13949313542e-61, No Iterations 21
DILUPBiCGStab:  Solving for ILambda_235_0, Initial residual = 1.06511077502e-16, Final residual = 5.47789599965e-61, No Iterations 22
DILUPBiCGStab:  Solving for ILambda_236_0, Initial residual = 8.88571274627e-17, Final residual = 4.7720617809e-61, No Iterations 21
DILUPBiCGStab:  Solving for ILambda_237_0, Initial residual = 9.09129478924e-17, Final residual = 1.20728228941e-63, No Iterations 22
DILUPBiCGStab:  Solving for ILambda_238_0, Initial residual = 8.96402971502e-17, Final residual = 1.4225732581e-61, No Iterations 19
DILUPBiCGStab:  Solving for ILambda_239_0, Initial residual = 8.11559588688e-17, Final residual = 3.46918206152e-61, No Iterations 16
DILUPBiCGStab:  Solving for ILambda_240_0, Initial residual = 3.43289379694e-17, Final residual = 4.65325967554e-62, No Iterations 7
DILUPBiCGStab:  Solving for ILambda_241_0, Initial residual = 4.05942954695e-17, Final residual = 2.28704038406e-62, No Iterations 8
DILUPBiCGStab:  Solving for ILambda_242_0, Initial residual = 4.43796156259e-17, Final residual = 3.34969238759e-62, No Iterations 8
DILUPBiCGStab:  Solving for ILambda_243_0, Initial residual = 5.12976145323e-17, Final residual = 2.68108487005e-61, No Iterations 8
DILUPBiCGStab:  Solving for ILambda_244_0, Initial residual = 5.31250104698e-17, Final residual = 1.32191762822e-62, No Iterations 8
DILUPBiCGStab:  Solving for ILambda_245_0, Initial residual = 6.41220181653e-17, Final residual = 9.28334433968e-63, No Iterations 9
DILUPBiCGStab:  Solving for ILambda_246_0, Initial residual = 6.02714338684e-17, Final residual = 8.60768276238e-61, No Iterations 8
DILUPBiCGStab:  Solving for ILambda_247_0, Initial residual = 5.55071516026e-17, Final residual = 4.42977112308e-62, No Iterations 9
DILUPBiCGStab:  Solving for ILambda_248_0, Initial residual = 5.62576892198e-17, Final residual = 4.34622313622e-63, No Iterations 9
DILUPBiCGStab:  Solving for ILambda_249_0, Initial residual = 4.83607282041e-17, Final residual = 1.48111110438e-61, No Iterations 8
DILUPBiCGStab:  Solving for ILambda_250_0, Initial residual = 4.3041700743e-17, Final residual = 6.5390914295e-62, No Iterations 9
DILUPBiCGStab:  Solving for ILambda_251_0, Initial residual = 3.29583910163e-17, Final residual = 9.84912613563e-61, No Iterations 8
DILUPBiCGStab:  Solving for ILambda_252_0, Initial residual = 3.27625985944e-17, Final residual = 9.07689782388e-61, No Iterations 14
DILUPBiCGStab:  Solving for ILambda_253_0, Initial residual = 4.24543234774e-17, Final residual = 5.62794559957e-61, No Iterations 17
DILUPBiCGStab:  Solving for ILambda_254_0, Initial residual = 4.53912098056e-17, Final residual = 9.82406831616e-61, No Iterations 18
DILUPBiCGStab:  Solving for ILambda_255_0, Initial residual = 5.3875548087e-17, Final residual = 2.20422490818e-63, No Iterations 19
DILUPBiCGStab:  Solving for ILambda_256_0, Initial residual = 4.77080867978e-17, Final residual = 7.3078329423e-62, No Iterations 20
DILUPBiCGStab:  Solving for ILambda_257_0, Initial residual = 6.252304672e-17, Final residual = 9.50733217468e-63, No Iterations 20
DILUPBiCGStab:  Solving for ILambda_258_0, Initial residual = 6.06303866418e-17, Final residual = 7.62449268619e-66, No Iterations 21
DILUPBiCGStab:  Solving for ILambda_259_0, Initial residual = 5.90640472668e-17, Final residual = 1.2684843719e-61, No Iterations 20
DILUPBiCGStab:  Solving for ILambda_260_0, Initial residual = 5.02860203525e-17, Final residual = 8.22644997753e-62, No Iterations 19
DILUPBiCGStab:  Solving for ILambda_261_0, Initial residual = 5.35818594542e-17, Final residual = 5.08299005342e-61, No Iterations 18
DILUPBiCGStab:  Solving for ILambda_262_0, Initial residual = 4.75775585166e-17, Final residual = 3.83409145297e-64, No Iterations 17
DILUPBiCGStab:  Solving for ILambda_263_0, Initial residual = 3.32194475788e-17, Final residual = 3.69157836035e-61, No Iterations 13
DILUPBiCGStab:  Solving for ILambda_264_0, Initial residual = 3.15552119928e-17, Final residual = 6.7330292674e-65, No Iterations 2
DILUPBiCGStab:  Solving for ILambda_265_0, Initial residual = 4.33027573055e-17, Final residual = 1.37204445487e-64, No Iterations 2
DILUPBiCGStab:  Solving for ILambda_266_0, Initial residual = 5.19176238682e-17, Final residual = 8.1706890047e-65, No Iterations 2
DILUPBiCGStab:  Solving for ILambda_267_0, Initial residual = 5.96187924621e-17, Final residual = 7.91289827759e-65, No Iterations 2
DILUPBiCGStab:  Solving for ILambda_268_0, Initial residual = 5.39081801573e-17, Final residual = 9.15702763101e-65, No Iterations 2
DILUPBiCGStab:  Solving for ILambda_269_0, Initial residual = 5.99124810949e-17, Final residual = 2.2700382355e-64, No Iterations 2
DILUPBiCGStab:  Solving for ILambda_270_0, Initial residual = 6.44157067981e-17, Final residual = 2.0048985652e-64, No Iterations 2
DILUPBiCGStab:  Solving for ILambda_271_0, Initial residual = 4.49996249618e-17, Final residual = 7.96269213489e-65, No Iterations 2
DILUPBiCGStab:  Solving for ILambda_272_0, Initial residual = 4.84912564853e-17, Final residual = 9.10354512021e-65, No Iterations 2
DILUPBiCGStab:  Solving for ILambda_273_0, Initial residual = 5.002496379e-17, Final residual = 1.4557420772e-64, No Iterations 2
DILUPBiCGStab:  Solving for ILambda_274_0, Initial residual = 3.94195409383e-17, Final residual = 5.90880315561e-65, No Iterations 2
DILUPBiCGStab:  Solving for ILambda_275_0, Initial residual = 3.47857869538e-17, Final residual = 8.19925241482e-65, No Iterations 2
DILUPBiCGStab:  Solving for ILambda_276_0, Initial residual = 3.61237018366e-17, Final residual = 3.36162711091e-62, No Iterations 14
DILUPBiCGStab:  Solving for ILambda_277_0, Initial residual = 4.4085926993e-17, Final residual = 1.78293416993e-61, No Iterations 17
DILUPBiCGStab:  Solving for ILambda_278_0, Initial residual = 4.38248704305e-17, Final residual = 1.18474346304e-61, No Iterations 18
DILUPBiCGStab:  Solving for ILambda_279_0, Initial residual = 5.7008226837e-17, Final residual = 3.49187717706e-63, No Iterations 19
DILUPBiCGStab:  Solving for ILambda_280_0, Initial residual = 5.69103306261e-17, Final residual = 2.6842589368e-66, No Iterations 20
DILUPBiCGStab:  Solving for ILambda_281_0, Initial residual = 6.47746595716e-17, Final residual = 1.07218922482e-65, No Iterations 20
DILUPBiCGStab:  Solving for ILambda_282_0, Initial residual = 5.92272076183e-17, Final residual = 1.669060082e-64, No Iterations 20
DILUPBiCGStab:  Solving for ILambda_283_0, Initial residual = 4.77080867978e-17, Final residual = 2.24746751491e-62, No Iterations 19
DILUPBiCGStab:  Solving for ILambda_284_0, Initial residual = 5.09060296885e-17, Final residual = 3.81370633677e-61, No Iterations 19
DILUPBiCGStab:  Solving for ILambda_285_0, Initial residual = 4.81323037119e-17, Final residual = 1.71047873516e-61, No Iterations 18
DILUPBiCGStab:  Solving for ILambda_286_0, Initial residual = 4.33027573055e-17, Final residual = 4.20375179775e-61, No Iterations 16
DILUPBiCGStab:  Solving for ILambda_287_0, Initial residual = 3.41657776179e-17, Final residual = 2.42864047002e-62, No Iterations 14
min/max(T) = 1000, 1000
ExecutionTime = 2.56 s  ClockTime = 3 s

writeObjects writeObjects1.writeObjects write:
    writing object a
    writing object qem
End

