/*---------------------------------------------------------------------------*\
| =========                 |                                                 |
| \\      /  F ield         | OpenFOAM: The Open Source CFD Toolbox           |
|  \\    /   O peration     | Version:  2306                                  |
|   \\  /    A nd           | Website:  www.openfoam.com                      |
|    \\/     M anipulation  |                                                 |
\*---------------------------------------------------------------------------*/
Build  : _fbf00d6b-20230626 OPENFOAM=2306 version=2306
Arch   : "LSB;label=32;scalar=64"
Exec   : fireRADFoam_MaCFP
Date   : Mar 12 2024
Time   : 19:27:52
Host   : pop-os
PID    : 172640
I/O    : uncollated
Case   : /home/rafay/Desktop/Study/Radiative_Heat_Transfer/Local_copy_RHT2324/01_Projects/02_Rafay/Case_1_q1D_SolidAngle/new_case3/th_4-ph_8/tau_0.1/res_1
nProcs : 1
trapFpe: Floating point exception trapping enabled (FOAM_SIGFPE).
fileModificationChecking : Monitoring run-time modified files using timeStampMaster (fileModificationSkew 5, maxFileModificationPolls 20)
allowSystemOperations : Allowing user-supplied system call operations

// * * * * * * * * * * * * * * * * * * * * * * * * * * * * * * * * * * * * * //
Create time

Create mesh for time = 0


PIMPLE: no residual control data found. Calculations will employ 10 corrector loops

Reading thermophysical properties

Selecting thermodynamics package 
{
    type            hePsiThermo;
    mixture         singleStepReactingMixture;
    transport       sutherland;
    thermo          janaf;
    energy          sensibleEnthalpy;
    equationOfState perfectGas;
    specie          specie;
}

Selecting chemistryReader foamChemistryReader
    elements not defined in "/home/rafay/Desktop/Study/Radiative_Heat_Transfer/Local_copy_RHT2324/01_Projects/02_Rafay/Case_1_q1D_SolidAngle/new_case3/th_4-ph_8/tau_0.1/res_1/constant/reactions"
Fuel heat of combustion :47168962.4726
stoichiometric air-fuel ratio :14.6914056505
stoichiometric oxygen-fuel ratio :3.42181919285
Maximum products mass concentrations:
    H2O: 0.0818486943001
    CO2: 0.199950099979
    N2: 0.718201205721
Creating component thermo properties:
    multi-component carrier - 6 species
    no liquid components
    no solid components
Creating field rho


Reading field U

Reading/calculating face flux field phi

Selecting radiationModel fvDOM
Selecting absorptionEmissionModel constantAbsorptionEmission
Selecting scatterModel none
Selecting sootModel none
fvDOM : Allocated 128 rays with average orientation:
	I0 : dAve : 	(0.00274192284156 0.0278392098 0.0490873852123) : omega : 	0.0575094490319 : d : 	(0.0375095356919 0.38084070704 0.923879532511)
	I1 : dAve : 	(0.00812039796756 0.0267693645798 0.0490873852123) : omega : 	0.0575094490319 : d : 	(0.111087136655 0.366205212247 0.923879532511)
	I2 : dAve : 	(0.0131868107536 0.0246707876912 0.0490873852123) : omega : 	0.0575094490319 : d : 	(0.180395721254 0.337496656517 0.923879532511)
	I3 : dAve : 	(0.0177464617977 0.0216241262672 0.0490873852123) : omega : 	0.0575094490319 : d : 	(0.242771799453 0.295818293547 0.923879532511)
	I4 : dAve : 	(0.0216241262672 0.0177464617977 0.0490873852123) : omega : 	0.0575094490319 : d : 	(0.295818293547 0.242771799453 0.923879532511)
	I5 : dAve : 	(0.0246707876912 0.0131868107536 0.0490873852123) : omega : 	0.0575094490319 : d : 	(0.337496656517 0.180395721254 0.923879532511)
	I6 : dAve : 	(0.0267693645798 0.00812039796756 0.0490873852123) : omega : 	0.0575094490319 : d : 	(0.366205212247 0.111087136655 0.923879532511)
	I7 : dAve : 	(0.0278392098 0.00274192284156 0.0490873852123) : omega : 	0.0575094490319 : d : 	(0.38084070704 0.0375095356919 0.923879532511)
	I8 : dAve : 	(0.0278392098 -0.00274192284156 0.0490873852123) : omega : 	0.0575094490319 : d : 	(0.38084070704 -0.0375095356919 0.923879532511)
	I9 : dAve : 	(0.0267693645798 -0.00812039796756 0.0490873852123) : omega : 	0.0575094490319 : d : 	(0.366205212247 -0.111087136655 0.923879532511)
	I10 : dAve : 	(0.0246707876912 -0.0131868107536 0.0490873852123) : omega : 	0.0575094490319 : d : 	(0.337496656517 -0.180395721254 0.923879532511)
	I11 : dAve : 	(0.0216241262672 -0.0177464617977 0.0490873852123) : omega : 	0.0575094490319 : d : 	(0.295818293547 -0.242771799453 0.923879532511)
	I12 : dAve : 	(0.0177464617977 -0.0216241262672 0.0490873852123) : omega : 	0.0575094490319 : d : 	(0.242771799453 -0.295818293547 0.923879532511)
	I13 : dAve : 	(0.0131868107536 -0.0246707876912 0.0490873852123) : omega : 	0.0575094490319 : d : 	(0.180395721254 -0.337496656517 0.923879532511)
	I14 : dAve : 	(0.00812039796756 -0.0267693645798 0.0490873852123) : omega : 	0.0575094490319 : d : 	(0.111087136655 -0.366205212247 0.923879532511)
	I15 : dAve : 	(0.00274192284156 -0.0278392098 0.0490873852123) : omega : 	0.0575094490319 : d : 	(0.0375095356919 -0.38084070704 0.923879532511)
	I16 : dAve : 	(-0.00274192284156 -0.0278392098 0.0490873852123) : omega : 	0.0575094490319 : d : 	(-0.0375095356919 -0.38084070704 0.923879532511)
	I17 : dAve : 	(-0.00812039796756 -0.0267693645798 0.0490873852123) : omega : 	0.0575094490319 : d : 	(-0.111087136655 -0.366205212247 0.923879532511)
	I18 : dAve : 	(-0.0131868107536 -0.0246707876912 0.0490873852123) : omega : 	0.0575094490319 : d : 	(-0.180395721254 -0.337496656517 0.923879532511)
	I19 : dAve : 	(-0.0177464617977 -0.0216241262672 0.0490873852123) : omega : 	0.0575094490319 : d : 	(-0.242771799453 -0.295818293547 0.923879532511)
	I20 : dAve : 	(-0.0216241262672 -0.0177464617977 0.0490873852123) : omega : 	0.0575094490319 : d : 	(-0.295818293547 -0.242771799453 0.923879532511)
	I21 : dAve : 	(-0.0246707876912 -0.0131868107536 0.0490873852123) : omega : 	0.0575094490319 : d : 	(-0.337496656517 -0.180395721254 0.923879532511)
	I22 : dAve : 	(-0.0267693645798 -0.00812039796756 0.0490873852123) : omega : 	0.0575094490319 : d : 	(-0.366205212247 -0.111087136655 0.923879532511)
	I23 : dAve : 	(-0.0278392098 -0.00274192284156 0.0490873852123) : omega : 	0.0575094490319 : d : 	(-0.38084070704 -0.0375095356919 0.923879532511)
	I24 : dAve : 	(-0.0278392098 0.00274192284156 0.0490873852123) : omega : 	0.0575094490319 : d : 	(-0.38084070704 0.0375095356919 0.923879532511)
	I25 : dAve : 	(-0.0267693645798 0.00812039796756 0.0490873852123) : omega : 	0.0575094490319 : d : 	(-0.366205212247 0.111087136655 0.923879532511)
	I26 : dAve : 	(-0.0246707876912 0.0131868107536 0.0490873852123) : omega : 	0.0575094490319 : d : 	(-0.337496656517 0.180395721254 0.923879532511)
	I27 : dAve : 	(-0.0216241262672 0.0177464617977 0.0490873852123) : omega : 	0.0575094490319 : d : 	(-0.295818293547 0.242771799453 0.923879532511)
	I28 : dAve : 	(-0.0177464617977 0.0216241262672 0.0490873852123) : omega : 	0.0575094490319 : d : 	(-0.242771799453 0.295818293547 0.923879532511)
	I29 : dAve : 	(-0.0131868107536 0.0246707876912 0.0490873852123) : omega : 	0.0575094490319 : d : 	(-0.180395721254 0.337496656517 0.923879532511)
	I30 : dAve : 	(-0.00812039796756 0.0267693645798 0.0490873852123) : omega : 	0.0575094490319 : d : 	(-0.111087136655 0.366205212247 0.923879532511)
	I31 : dAve : 	(-0.00274192284156 0.0278392098 0.0490873852123) : omega : 	0.0575094490319 : d : 	(-0.0375095356919 0.38084070704 0.923879532511)
	I32 : dAve : 	(0.0123492826399 0.125384370808 0.0490873852123) : omega : 	0.138840091817 : d : 	(0.0905560297858 0.91943080004 0.382683432365)
	I33 : dAve : 	(0.0365732719135 0.120565919754 0.0490873852123) : omega : 	0.138840091817 : d : 	(0.268188071917 0.884097590017 0.382683432365)
	I34 : dAve : 	(0.059391770858 0.111114188018 0.0490873852123) : omega : 	0.138840091817 : d : 	(0.435513796846 0.814789005418 0.382683432365)
	I35 : dAve : 	(0.0799278773557 0.0973924003507 0.0490873852123) : omega : 	0.138840091817 : d : 	(0.586102970801 0.714168536279 0.382683432365)
	I36 : dAve : 	(0.0973924003507 0.0799278773557 0.0490873852123) : omega : 	0.138840091817 : d : 	(0.714168536279 0.586102970801 0.382683432365)
	I37 : dAve : 	(0.111114188018 0.059391770858 0.0490873852123) : omega : 	0.138840091817 : d : 	(0.814789005418 0.435513796846 0.382683432365)
	I38 : dAve : 	(0.120565919754 0.0365732719135 0.0490873852123) : omega : 	0.138840091817 : d : 	(0.884097590017 0.268188071917 0.382683432365)
	I39 : dAve : 	(0.125384370808 0.0123492826399 0.0490873852123) : omega : 	0.138840091817 : d : 	(0.91943080004 0.0905560297858 0.382683432365)
	I40 : dAve : 	(0.125384370808 -0.0123492826399 0.0490873852123) : omega : 	0.138840091817 : d : 	(0.91943080004 -0.0905560297858 0.382683432365)
	I41 : dAve : 	(0.120565919754 -0.0365732719135 0.0490873852123) : omega : 	0.138840091817 : d : 	(0.884097590017 -0.268188071917 0.382683432365)
	I42 : dAve : 	(0.111114188018 -0.059391770858 0.0490873852123) : omega : 	0.138840091817 : d : 	(0.814789005418 -0.435513796846 0.382683432365)
	I43 : dAve : 	(0.0973924003507 -0.0799278773557 0.0490873852123) : omega : 	0.138840091817 : d : 	(0.714168536279 -0.586102970801 0.382683432365)
	I44 : dAve : 	(0.0799278773557 -0.0973924003507 0.0490873852123) : omega : 	0.138840091817 : d : 	(0.586102970801 -0.714168536279 0.382683432365)
	I45 : dAve : 	(0.059391770858 -0.111114188018 0.0490873852123) : omega : 	0.138840091817 : d : 	(0.435513796846 -0.814789005418 0.382683432365)
	I46 : dAve : 	(0.0365732719135 -0.120565919754 0.0490873852123) : omega : 	0.138840091817 : d : 	(0.268188071917 -0.884097590017 0.382683432365)
	I47 : dAve : 	(0.0123492826399 -0.125384370808 0.0490873852123) : omega : 	0.138840091817 : d : 	(0.0905560297858 -0.91943080004 0.382683432365)
	I48 : dAve : 	(-0.0123492826399 -0.125384370808 0.0490873852123) : omega : 	0.138840091817 : d : 	(-0.0905560297858 -0.91943080004 0.382683432365)
	I49 : dAve : 	(-0.0365732719135 -0.120565919754 0.0490873852123) : omega : 	0.138840091817 : d : 	(-0.268188071917 -0.884097590017 0.382683432365)
	I50 : dAve : 	(-0.059391770858 -0.111114188018 0.0490873852123) : omega : 	0.138840091817 : d : 	(-0.435513796846 -0.814789005418 0.382683432365)
	I51 : dAve : 	(-0.0799278773557 -0.0973924003507 0.0490873852123) : omega : 	0.138840091817 : d : 	(-0.586102970801 -0.714168536279 0.382683432365)
	I52 : dAve : 	(-0.0973924003507 -0.0799278773557 0.0490873852123) : omega : 	0.138840091817 : d : 	(-0.714168536279 -0.586102970801 0.382683432365)
	I53 : dAve : 	(-0.111114188018 -0.059391770858 0.0490873852123) : omega : 	0.138840091817 : d : 	(-0.814789005418 -0.435513796846 0.382683432365)
	I54 : dAve : 	(-0.120565919754 -0.0365732719135 0.0490873852123) : omega : 	0.138840091817 : d : 	(-0.884097590017 -0.268188071917 0.382683432365)
	I55 : dAve : 	(-0.125384370808 -0.0123492826399 0.0490873852123) : omega : 	0.138840091817 : d : 	(-0.91943080004 -0.0905560297858 0.382683432365)
	I56 : dAve : 	(-0.125384370808 0.0123492826399 0.0490873852123) : omega : 	0.138840091817 : d : 	(-0.91943080004 0.0905560297858 0.382683432365)
	I57 : dAve : 	(-0.120565919754 0.0365732719135 0.0490873852123) : omega : 	0.138840091817 : d : 	(-0.884097590017 0.268188071917 0.382683432365)
	I58 : dAve : 	(-0.111114188018 0.059391770858 0.0490873852123) : omega : 	0.138840091817 : d : 	(-0.814789005418 0.435513796846 0.382683432365)
	I59 : dAve : 	(-0.0973924003507 0.0799278773557 0.0490873852123) : omega : 	0.138840091817 : d : 	(-0.714168536279 0.586102970801 0.382683432365)
	I60 : dAve : 	(-0.0799278773557 0.0973924003507 0.0490873852123) : omega : 	0.138840091817 : d : 	(-0.586102970801 0.714168536279 0.382683432365)
	I61 : dAve : 	(-0.059391770858 0.111114188018 0.0490873852123) : omega : 	0.138840091817 : d : 	(-0.435513796846 0.814789005418 0.382683432365)
	I62 : dAve : 	(-0.0365732719135 0.120565919754 0.0490873852123) : omega : 	0.138840091817 : d : 	(-0.268188071917 0.884097590017 0.382683432365)
	I63 : dAve : 	(-0.0123492826399 0.125384370808 0.0490873852123) : omega : 	0.138840091817 : d : 	(-0.0905560297858 0.91943080004 0.382683432365)
	I64 : dAve : 	(0.0123492826399 0.125384370808 -0.0490873852123) : omega : 	0.138840091817 : d : 	(0.0905560297858 0.91943080004 -0.382683432365)
	I65 : dAve : 	(0.0365732719135 0.120565919754 -0.0490873852123) : omega : 	0.138840091817 : d : 	(0.268188071917 0.884097590017 -0.382683432365)
	I66 : dAve : 	(0.059391770858 0.111114188018 -0.0490873852123) : omega : 	0.138840091817 : d : 	(0.435513796846 0.814789005418 -0.382683432365)
	I67 : dAve : 	(0.0799278773557 0.0973924003507 -0.0490873852123) : omega : 	0.138840091817 : d : 	(0.586102970801 0.714168536279 -0.382683432365)
	I68 : dAve : 	(0.0973924003507 0.0799278773557 -0.0490873852123) : omega : 	0.138840091817 : d : 	(0.714168536279 0.586102970801 -0.382683432365)
	I69 : dAve : 	(0.111114188018 0.059391770858 -0.0490873852123) : omega : 	0.138840091817 : d : 	(0.814789005418 0.435513796846 -0.382683432365)
	I70 : dAve : 	(0.120565919754 0.0365732719135 -0.0490873852123) : omega : 	0.138840091817 : d : 	(0.884097590017 0.268188071917 -0.382683432365)
	I71 : dAve : 	(0.125384370808 0.0123492826399 -0.0490873852123) : omega : 	0.138840091817 : d : 	(0.91943080004 0.0905560297858 -0.382683432365)
	I72 : dAve : 	(0.125384370808 -0.0123492826399 -0.0490873852123) : omega : 	0.138840091817 : d : 	(0.91943080004 -0.0905560297858 -0.382683432365)
	I73 : dAve : 	(0.120565919754 -0.0365732719135 -0.0490873852123) : omega : 	0.138840091817 : d : 	(0.884097590017 -0.268188071917 -0.382683432365)
	I74 : dAve : 	(0.111114188018 -0.059391770858 -0.0490873852123) : omega : 	0.138840091817 : d : 	(0.814789005418 -0.435513796846 -0.382683432365)
	I75 : dAve : 	(0.0973924003507 -0.0799278773557 -0.0490873852123) : omega : 	0.138840091817 : d : 	(0.714168536279 -0.586102970801 -0.382683432365)
	I76 : dAve : 	(0.0799278773557 -0.0973924003507 -0.0490873852123) : omega : 	0.138840091817 : d : 	(0.586102970801 -0.714168536279 -0.382683432365)
	I77 : dAve : 	(0.059391770858 -0.111114188018 -0.0490873852123) : omega : 	0.138840091817 : d : 	(0.435513796846 -0.814789005418 -0.382683432365)
	I78 : dAve : 	(0.0365732719135 -0.120565919754 -0.0490873852123) : omega : 	0.138840091817 : d : 	(0.268188071917 -0.884097590017 -0.382683432365)
	I79 : dAve : 	(0.0123492826399 -0.125384370808 -0.0490873852123) : omega : 	0.138840091817 : d : 	(0.0905560297858 -0.91943080004 -0.382683432365)
	I80 : dAve : 	(-0.0123492826399 -0.125384370808 -0.0490873852123) : omega : 	0.138840091817 : d : 	(-0.0905560297858 -0.91943080004 -0.382683432365)
	I81 : dAve : 	(-0.0365732719135 -0.120565919754 -0.0490873852123) : omega : 	0.138840091817 : d : 	(-0.268188071917 -0.884097590017 -0.382683432365)
	I82 : dAve : 	(-0.059391770858 -0.111114188018 -0.0490873852123) : omega : 	0.138840091817 : d : 	(-0.435513796846 -0.814789005418 -0.382683432365)
	I83 : dAve : 	(-0.0799278773557 -0.0973924003507 -0.0490873852123) : omega : 	0.138840091817 : d : 	(-0.586102970801 -0.714168536279 -0.382683432365)
	I84 : dAve : 	(-0.0973924003507 -0.0799278773557 -0.0490873852123) : omega : 	0.138840091817 : d : 	(-0.714168536279 -0.586102970801 -0.382683432365)
	I85 : dAve : 	(-0.111114188018 -0.059391770858 -0.0490873852123) : omega : 	0.138840091817 : d : 	(-0.814789005418 -0.435513796846 -0.382683432365)
	I86 : dAve : 	(-0.120565919754 -0.0365732719135 -0.0490873852123) : omega : 	0.138840091817 : d : 	(-0.884097590017 -0.268188071917 -0.382683432365)
	I87 : dAve : 	(-0.125384370808 -0.0123492826399 -0.0490873852123) : omega : 	0.138840091817 : d : 	(-0.91943080004 -0.0905560297858 -0.382683432365)
	I88 : dAve : 	(-0.125384370808 0.0123492826399 -0.0490873852123) : omega : 	0.138840091817 : d : 	(-0.91943080004 0.0905560297858 -0.382683432365)
	I89 : dAve : 	(-0.120565919754 0.0365732719135 -0.0490873852123) : omega : 	0.138840091817 : d : 	(-0.884097590017 0.268188071917 -0.382683432365)
	I90 : dAve : 	(-0.111114188018 0.059391770858 -0.0490873852123) : omega : 	0.138840091817 : d : 	(-0.814789005418 0.435513796846 -0.382683432365)
	I91 : dAve : 	(-0.0973924003507 0.0799278773557 -0.0490873852123) : omega : 	0.138840091817 : d : 	(-0.714168536279 0.586102970801 -0.382683432365)
	I92 : dAve : 	(-0.0799278773557 0.0973924003507 -0.0490873852123) : omega : 	0.138840091817 : d : 	(-0.586102970801 0.714168536279 -0.382683432365)
	I93 : dAve : 	(-0.059391770858 0.111114188018 -0.0490873852123) : omega : 	0.138840091817 : d : 	(-0.435513796846 0.814789005418 -0.382683432365)
	I94 : dAve : 	(-0.0365732719135 0.120565919754 -0.0490873852123) : omega : 	0.138840091817 : d : 	(-0.268188071917 0.884097590017 -0.382683432365)
	I95 : dAve : 	(-0.0123492826399 0.125384370808 -0.0490873852123) : omega : 	0.138840091817 : d : 	(-0.0905560297858 0.91943080004 -0.382683432365)
	I96 : dAve : 	(0.00274192284156 0.0278392098 -0.0490873852123) : omega : 	0.0575094490319 : d : 	(0.0375095356919 0.38084070704 -0.923879532511)
	I97 : dAve : 	(0.00812039796756 0.0267693645798 -0.0490873852123) : omega : 	0.0575094490319 : d : 	(0.111087136655 0.366205212247 -0.923879532511)
	I98 : dAve : 	(0.0131868107536 0.0246707876912 -0.0490873852123) : omega : 	0.0575094490319 : d : 	(0.180395721254 0.337496656517 -0.923879532511)
	I99 : dAve : 	(0.0177464617977 0.0216241262672 -0.0490873852123) : omega : 	0.0575094490319 : d : 	(0.242771799453 0.295818293547 -0.923879532511)
	I100 : dAve : 	(0.0216241262672 0.0177464617977 -0.0490873852123) : omega : 	0.0575094490319 : d : 	(0.295818293547 0.242771799453 -0.923879532511)
	I101 : dAve : 	(0.0246707876912 0.0131868107536 -0.0490873852123) : omega : 	0.0575094490319 : d : 	(0.337496656517 0.180395721254 -0.923879532511)
	I102 : dAve : 	(0.0267693645798 0.00812039796756 -0.0490873852123) : omega : 	0.0575094490319 : d : 	(0.366205212247 0.111087136655 -0.923879532511)
	I103 : dAve : 	(0.0278392098 0.00274192284156 -0.0490873852123) : omega : 	0.0575094490319 : d : 	(0.38084070704 0.0375095356919 -0.923879532511)
	I104 : dAve : 	(0.0278392098 -0.00274192284156 -0.0490873852123) : omega : 	0.0575094490319 : d : 	(0.38084070704 -0.0375095356919 -0.923879532511)
	I105 : dAve : 	(0.0267693645798 -0.00812039796756 -0.0490873852123) : omega : 	0.0575094490319 : d : 	(0.366205212247 -0.111087136655 -0.923879532511)
	I106 : dAve : 	(0.0246707876912 -0.0131868107536 -0.0490873852123) : omega : 	0.0575094490319 : d : 	(0.337496656517 -0.180395721254 -0.923879532511)
	I107 : dAve : 	(0.0216241262672 -0.0177464617977 -0.0490873852123) : omega : 	0.0575094490319 : d : 	(0.295818293547 -0.242771799453 -0.923879532511)
	I108 : dAve : 	(0.0177464617977 -0.0216241262672 -0.0490873852123) : omega : 	0.0575094490319 : d : 	(0.242771799453 -0.295818293547 -0.923879532511)
	I109 : dAve : 	(0.0131868107536 -0.0246707876912 -0.0490873852123) : omega : 	0.0575094490319 : d : 	(0.180395721254 -0.337496656517 -0.923879532511)
	I110 : dAve : 	(0.00812039796756 -0.0267693645798 -0.0490873852123) : omega : 	0.0575094490319 : d : 	(0.111087136655 -0.366205212247 -0.923879532511)
	I111 : dAve : 	(0.00274192284156 -0.0278392098 -0.0490873852123) : omega : 	0.0575094490319 : d : 	(0.0375095356919 -0.38084070704 -0.923879532511)
	I112 : dAve : 	(-0.00274192284156 -0.0278392098 -0.0490873852123) : omega : 	0.0575094490319 : d : 	(-0.0375095356919 -0.38084070704 -0.923879532511)
	I113 : dAve : 	(-0.00812039796756 -0.0267693645798 -0.0490873852123) : omega : 	0.0575094490319 : d : 	(-0.111087136655 -0.366205212247 -0.923879532511)
	I114 : dAve : 	(-0.0131868107536 -0.0246707876912 -0.0490873852123) : omega : 	0.0575094490319 : d : 	(-0.180395721254 -0.337496656517 -0.923879532511)
	I115 : dAve : 	(-0.0177464617977 -0.0216241262672 -0.0490873852123) : omega : 	0.0575094490319 : d : 	(-0.242771799453 -0.295818293547 -0.923879532511)
	I116 : dAve : 	(-0.0216241262672 -0.0177464617977 -0.0490873852123) : omega : 	0.0575094490319 : d : 	(-0.295818293547 -0.242771799453 -0.923879532511)
	I117 : dAve : 	(-0.0246707876912 -0.0131868107536 -0.0490873852123) : omega : 	0.0575094490319 : d : 	(-0.337496656517 -0.180395721254 -0.923879532511)
	I118 : dAve : 	(-0.0267693645798 -0.00812039796756 -0.0490873852123) : omega : 	0.0575094490319 : d : 	(-0.366205212247 -0.111087136655 -0.923879532511)
	I119 : dAve : 	(-0.0278392098 -0.00274192284156 -0.0490873852123) : omega : 	0.0575094490319 : d : 	(-0.38084070704 -0.0375095356919 -0.923879532511)
	I120 : dAve : 	(-0.0278392098 0.00274192284156 -0.0490873852123) : omega : 	0.0575094490319 : d : 	(-0.38084070704 0.0375095356919 -0.923879532511)
	I121 : dAve : 	(-0.0267693645798 0.00812039796756 -0.0490873852123) : omega : 	0.0575094490319 : d : 	(-0.366205212247 0.111087136655 -0.923879532511)
	I122 : dAve : 	(-0.0246707876912 0.0131868107536 -0.0490873852123) : omega : 	0.0575094490319 : d : 	(-0.337496656517 0.180395721254 -0.923879532511)
	I123 : dAve : 	(-0.0216241262672 0.0177464617977 -0.0490873852123) : omega : 	0.0575094490319 : d : 	(-0.295818293547 0.242771799453 -0.923879532511)
	I124 : dAve : 	(-0.0177464617977 0.0216241262672 -0.0490873852123) : omega : 	0.0575094490319 : d : 	(-0.242771799453 0.295818293547 -0.923879532511)
	I125 : dAve : 	(-0.0131868107536 0.0246707876912 -0.0490873852123) : omega : 	0.0575094490319 : d : 	(-0.180395721254 0.337496656517 -0.923879532511)
	I126 : dAve : 	(-0.00812039796756 0.0267693645798 -0.0490873852123) : omega : 	0.0575094490319 : d : 	(-0.111087136655 0.366205212247 -0.923879532511)
	I127 : dAve : 	(-0.00274192284156 0.0278392098 -0.0490873852123) : omega : 	0.0575094490319 : d : 	(-0.0375095356919 0.38084070704 -0.923879532511)
Total omega : 12.5663706144

Courant Number mean: 0 max: 0

Starting time loop

Sampled set:
    data -> csv

Sampled set:
    data -> csv

Sampled surface:
    yNormal -> ensight
        sampledCuttingPlane: yNormal : plane:(0 1 0) (0 0 0) offsets:(0)

Sampled surface:
    zNormal -> ensight
        sampledCuttingPlane: zNormal : plane:(0 0 1) (0 0 0) offsets:(0)

Sampled surface:
    patchAll -> ensight
        sampledPatch: patchAll : patches:(".*WW.*")

deltaT = 1
Time = 1

PIMPLE: iteration 1
Radiation solver iter: 0
DILUPBiCGStab:  Solving for ILambda_0_0, Initial residual = 1, Final residual = 7.40818874203e-62, No Iterations 2
DILUPBiCGStab:  Solving for ILambda_1_0, Initial residual = 1, Final residual = 7.57381623375e-62, No Iterations 2
DILUPBiCGStab:  Solving for ILambda_2_0, Initial residual = 1, Final residual = 3.780803874e-62, No Iterations 2
DILUPBiCGStab:  Solving for ILambda_3_0, Initial residual = 1, Final residual = 5.95150562243e-62, No Iterations 2
DILUPBiCGStab:  Solving for ILambda_4_0, Initial residual = 1, Final residual = 2.5546021579e-62, No Iterations 2
DILUPBiCGStab:  Solving for ILambda_5_0, Initial residual = 1, Final residual = 4.90162900231e-62, No Iterations 2
DILUPBiCGStab:  Solving for ILambda_6_0, Initial residual = 1, Final residual = 1.99316864956e-61, No Iterations 2
DILUPBiCGStab:  Solving for ILambda_7_0, Initial residual = 1, Final residual = 5.7916652881e-62, No Iterations 2
DILUPBiCGStab:  Solving for ILambda_8_0, Initial residual = 1, Final residual = 5.4895364963e-61, No Iterations 28
DILUPBiCGStab:  Solving for ILambda_9_0, Initial residual = 1, Final residual = 8.03779122354e-61, No Iterations 37
DILUPBiCGStab:  Solving for ILambda_10_0, Initial residual = 1, Final residual = 8.96829533751e-61, No Iterations 38
DILUPBiCGStab:  Solving for ILambda_11_0, Initial residual = 1, Final residual = 1.31888176182e-61, No Iterations 39
DILUPBiCGStab:  Solving for ILambda_12_0, Initial residual = 1, Final residual = 4.23180546815e-61, No Iterations 39
DILUPBiCGStab:  Solving for ILambda_13_0, Initial residual = 1, Final residual = 2.83555035609e-61, No Iterations 37
DILUPBiCGStab:  Solving for ILambda_14_0, Initial residual = 1, Final residual = 7.92268826128e-61, No Iterations 35
DILUPBiCGStab:  Solving for ILambda_15_0, Initial residual = 1, Final residual = 6.8570082712e-61, No Iterations 26
DILUPBiCGStab:  Solving for ILambda_16_0, Initial residual = 1, Final residual = 1.37732809154e-61, No Iterations 12
DILUPBiCGStab:  Solving for ILambda_17_0, Initial residual = 1, Final residual = 9.62893224282e-62, No Iterations 21
DILUPBiCGStab:  Solving for ILambda_18_0, Initial residual = 1, Final residual = 1.15764607933e-61, No Iterations 16
DILUPBiCGStab:  Solving for ILambda_19_0, Initial residual = 1, Final residual = 6.80385651659e-61, No Iterations 18
DILUPBiCGStab:  Solving for ILambda_20_0, Initial residual = 1, Final residual = 7.40070522397e-67, No Iterations 15
DILUPBiCGStab:  Solving for ILambda_21_0, Initial residual = 1, Final residual = 1.42024690089e-62, No Iterations 16
DILUPBiCGStab:  Solving for ILambda_22_0, Initial residual = 1, Final residual = 1.6091151932e-63, No Iterations 18
DILUPBiCGStab:  Solving for ILambda_23_0, Initial residual = 1, Final residual = 1.93823319179e-61, No Iterations 17
DILUPBiCGStab:  Solving for ILambda_24_0, Initial residual = 1, Final residual = 7.09732073868e-61, No Iterations 26
DILUPBiCGStab:  Solving for ILambda_25_0, Initial residual = 1, Final residual = 2.10750875545e-61, No Iterations 35
DILUPBiCGStab:  Solving for ILambda_26_0, Initial residual = 1, Final residual = 1.05845333706e-61, No Iterations 38
DILUPBiCGStab:  Solving for ILambda_27_0, Initial residual = 1, Final residual = 1.06941945342e-61, No Iterations 39
DILUPBiCGStab:  Solving for ILambda_28_0, Initial residual = 1, Final residual = 1.48005747584e-61, No Iterations 39
DILUPBiCGStab:  Solving for ILambda_29_0, Initial residual = 1, Final residual = 3.62916692915e-61, No Iterations 38
DILUPBiCGStab:  Solving for ILambda_30_0, Initial residual = 1, Final residual = 5.70795875495e-62, No Iterations 37
DILUPBiCGStab:  Solving for ILambda_31_0, Initial residual = 1, Final residual = 1.02675781055e-61, No Iterations 28
DILUPBiCGStab:  Solving for ILambda_32_0, Initial residual = 1, Final residual = 2.98249459737e-72, No Iterations 3
DILUPBiCGStab:  Solving for ILambda_33_0, Initial residual = 1, Final residual = 1.7264352718e-75, No Iterations 3
DILUPBiCGStab:  Solving for ILambda_34_0, Initial residual = 1, Final residual = 1.9070118547e-74, No Iterations 3
DILUPBiCGStab:  Solving for ILambda_35_0, Initial residual = 1, Final residual = 3.92121121727e-75, No Iterations 3
DILUPBiCGStab:  Solving for ILambda_36_0, Initial residual = 1, Final residual = 8.63427780958e-61, No Iterations 2
DILUPBiCGStab:  Solving for ILambda_37_0, Initial residual = 1, Final residual = 1.15704982795e-74, No Iterations 3
DILUPBiCGStab:  Solving for ILambda_38_0, Initial residual = 1, Final residual = 1.591414086e-74, No Iterations 3
DILUPBiCGStab:  Solving for ILambda_39_0, Initial residual = 1, Final residual = 5.61080388507e-74, No Iterations 3
DILUPBiCGStab:  Solving for ILambda_40_0, Initial residual = 1, Final residual = 2.90722740471e-61, No Iterations 29
DILUPBiCGStab:  Solving for ILambda_41_0, Initial residual = 1, Final residual = 4.79514302805e-61, No Iterations 38
DILUPBiCGStab:  Solving for ILambda_42_0, Initial residual = 1, Final residual = 1.07916862482e-61, No Iterations 41
DILUPBiCGStab:  Solving for ILambda_43_0, Initial residual = 1, Final residual = 1.26843120377e-61, No Iterations 40
DILUPBiCGStab:  Solving for ILambda_44_0, Initial residual = 1, Final residual = 2.19142932389e-61, No Iterations 41
DILUPBiCGStab:  Solving for ILambda_45_0, Initial residual = 1, Final residual = 1.99521598601e-61, No Iterations 40
DILUPBiCGStab:  Solving for ILambda_46_0, Initial residual = 1, Final residual = 4.84003356946e-61, No Iterations 37
DILUPBiCGStab:  Solving for ILambda_47_0, Initial residual = 1, Final residual = 5.75090869037e-62, No Iterations 27
DILUPBiCGStab:  Solving for ILambda_48_0, Initial residual = 1, Final residual = 3.63073785904e-62, No Iterations 17
DILUPBiCGStab:  Solving for ILambda_49_0, Initial residual = 1, Final residual = 4.69242735235e-61, No Iterations 18
DILUPBiCGStab:  Solving for ILambda_50_0, Initial residual = 1, Final residual = 6.05642050145e-61, No Iterations 19
DILUPBiCGStab:  Solving for ILambda_51_0, Initial residual = 1, Final residual = 2.56565704722e-64, No Iterations 17
DILUPBiCGStab:  Solving for ILambda_52_0, Initial residual = 1, Final residual = 2.39010659798e-61, No Iterations 21
DILUPBiCGStab:  Solving for ILambda_53_0, Initial residual = 1, Final residual = 2.51204451311e-62, No Iterations 18
DILUPBiCGStab:  Solving for ILambda_54_0, Initial residual = 1, Final residual = 6.01023749535e-63, No Iterations 16
DILUPBiCGStab:  Solving for ILambda_55_0, Initial residual = 1, Final residual = 1.35416422543e-61, No Iterations 22
DILUPBiCGStab:  Solving for ILambda_56_0, Initial residual = 1, Final residual = 5.96865259983e-62, No Iterations 27
DILUPBiCGStab:  Solving for ILambda_57_0, Initial residual = 1, Final residual = 6.40294767298e-61, No Iterations 37
DILUPBiCGStab:  Solving for ILambda_58_0, Initial residual = 1, Final residual = 3.38474598189e-61, No Iterations 41
DILUPBiCGStab:  Solving for ILambda_59_0, Initial residual = 1, Final residual = 5.00662237835e-61, No Iterations 42
DILUPBiCGStab:  Solving for ILambda_60_0, Initial residual = 1, Final residual = 6.88941548429e-61, No Iterations 42
DILUPBiCGStab:  Solving for ILambda_61_0, Initial residual = 1, Final residual = 8.53343241838e-61, No Iterations 41
DILUPBiCGStab:  Solving for ILambda_62_0, Initial residual = 1, Final residual = 1.37800786816e-61, No Iterations 38
DILUPBiCGStab:  Solving for ILambda_63_0, Initial residual = 1, Final residual = 7.26939870092e-62, No Iterations 29
DILUPBiCGStab:  Solving for ILambda_64_0, Initial residual = 1, Final residual = 3.39269698756e-61, No Iterations 21
DILUPBiCGStab:  Solving for ILambda_65_0, Initial residual = 1, Final residual = 9.55429929458e-62, No Iterations 20
DILUPBiCGStab:  Solving for ILambda_66_0, Initial residual = 1, Final residual = 1.0843545585e-62, No Iterations 18
DILUPBiCGStab:  Solving for ILambda_67_0, Initial residual = 1, Final residual = 2.28249341814e-61, No Iterations 23
DILUPBiCGStab:  Solving for ILambda_68_0, Initial residual = 1, Final residual = 1.71947048307e-61, No Iterations 20
DILUPBiCGStab:  Solving for ILambda_69_0, Initial residual = 1, Final residual = 9.47463531359e-63, No Iterations 16
DILUPBiCGStab:  Solving for ILambda_70_0, Initial residual = 1, Final residual = 1.17229114188e-62, No Iterations 16
DILUPBiCGStab:  Solving for ILambda_71_0, Initial residual = 1, Final residual = 3.27126814884e-62, No Iterations 16
DILUPBiCGStab:  Solving for ILambda_72_0, Initial residual = 1, Final residual = 5.74938368344e-62, No Iterations 28
DILUPBiCGStab:  Solving for ILambda_73_0, Initial residual = 1, Final residual = 7.47052225948e-61, No Iterations 37
DILUPBiCGStab:  Solving for ILambda_74_0, Initial residual = 1, Final residual = 3.29104286241e-61, No Iterations 42
DILUPBiCGStab:  Solving for ILambda_75_0, Initial residual = 1, Final residual = 1.0981949067e-61, No Iterations 41
DILUPBiCGStab:  Solving for ILambda_76_0, Initial residual = 1, Final residual = 9.62093173241e-62, No Iterations 42
DILUPBiCGStab:  Solving for ILambda_77_0, Initial residual = 1, Final residual = 4.03091636702e-61, No Iterations 41
DILUPBiCGStab:  Solving for ILambda_78_0, Initial residual = 1, Final residual = 2.47746250676e-61, No Iterations 38
DILUPBiCGStab:  Solving for ILambda_79_0, Initial residual = 1, Final residual = 5.78811382014e-61, No Iterations 29
DILUPBiCGStab:  Solving for ILambda_80_0, Initial residual = 1, Final residual = 3.78868729028e-61, No Iterations 2
DILUPBiCGStab:  Solving for ILambda_81_0, Initial residual = 1, Final residual = 8.28474603132e-75, No Iterations 3
DILUPBiCGStab:  Solving for ILambda_82_0, Initial residual = 1, Final residual = 1.27058525513e-75, No Iterations 3
DILUPBiCGStab:  Solving for ILambda_83_0, Initial residual = 1, Final residual = 1.32356160962e-75, No Iterations 3
DILUPBiCGStab:  Solving for ILambda_84_0, Initial residual = 1, Final residual = 5.37479693736e-61, No Iterations 2
DILUPBiCGStab:  Solving for ILambda_85_0, Initial residual = 1, Final residual = 4.79548252389e-61, No Iterations 2
DILUPBiCGStab:  Solving for ILambda_86_0, Initial residual = 1, Final residual = 3.09031962361e-61, No Iterations 2
DILUPBiCGStab:  Solving for ILambda_87_0, Initial residual = 1, Final residual = 1.19572485614e-75, No Iterations 3
DILUPBiCGStab:  Solving for ILambda_88_0, Initial residual = 1, Final residual = 7.84119099449e-61, No Iterations 29
DILUPBiCGStab:  Solving for ILambda_89_0, Initial residual = 1, Final residual = 1.47770137201e-61, No Iterations 38
DILUPBiCGStab:  Solving for ILambda_90_0, Initial residual = 1, Final residual = 4.02942065153e-61, No Iterations 41
DILUPBiCGStab:  Solving for ILambda_91_0, Initial residual = 1, Final residual = 4.57251549403e-61, No Iterations 41
DILUPBiCGStab:  Solving for ILambda_92_0, Initial residual = 1, Final residual = 5.5314014712e-61, No Iterations 41
DILUPBiCGStab:  Solving for ILambda_93_0, Initial residual = 1, Final residual = 1.05120491023e-61, No Iterations 41
DILUPBiCGStab:  Solving for ILambda_94_0, Initial residual = 1, Final residual = 4.59606337497e-62, No Iterations 38
DILUPBiCGStab:  Solving for ILambda_95_0, Initial residual = 1, Final residual = 1.1505211472e-61, No Iterations 28
DILUPBiCGStab:  Solving for ILambda_96_0, Initial residual = 1, Final residual = 5.16950137595e-63, No Iterations 15
DILUPBiCGStab:  Solving for ILambda_97_0, Initial residual = 1, Final residual = 2.95105881597e-65, No Iterations 17
DILUPBiCGStab:  Solving for ILambda_98_0, Initial residual = 1, Final residual = 1.08424930406e-61, No Iterations 21
DILUPBiCGStab:  Solving for ILambda_99_0, Initial residual = 1, Final residual = 4.93297001711e-64, No Iterations 17
DILUPBiCGStab:  Solving for ILambda_100_0, Initial residual = 1, Final residual = 3.48488700722e-61, No Iterations 19
DILUPBiCGStab:  Solving for ILambda_101_0, Initial residual = 1, Final residual = 1.56948085701e-61, No Iterations 24
DILUPBiCGStab:  Solving for ILambda_102_0, Initial residual = 1, Final residual = 3.41066790844e-61, No Iterations 18
DILUPBiCGStab:  Solving for ILambda_103_0, Initial residual = 1, Final residual = 1.79320866427e-62, No Iterations 19
DILUPBiCGStab:  Solving for ILambda_104_0, Initial residual = 1, Final residual = 5.17264721081e-61, No Iterations 28
DILUPBiCGStab:  Solving for ILambda_105_0, Initial residual = 1, Final residual = 8.43997154749e-62, No Iterations 37
DILUPBiCGStab:  Solving for ILambda_106_0, Initial residual = 1, Final residual = 2.94887638178e-61, No Iterations 40
DILUPBiCGStab:  Solving for ILambda_107_0, Initial residual = 1, Final residual = 1.13378909088e-61, No Iterations 40
DILUPBiCGStab:  Solving for ILambda_108_0, Initial residual = 1, Final residual = 7.09819740574e-62, No Iterations 39
DILUPBiCGStab:  Solving for ILambda_109_0, Initial residual = 1, Final residual = 1.58304352402e-61, No Iterations 40
DILUPBiCGStab:  Solving for ILambda_110_0, Initial residual = 1, Final residual = 2.38139869576e-61, No Iterations 36
DILUPBiCGStab:  Solving for ILambda_111_0, Initial residual = 1, Final residual = 9.24025049528e-62, No Iterations 28
DILUPBiCGStab:  Solving for ILambda_112_0, Initial residual = 1, Final residual = 9.60592598802e-62, No Iterations 2
DILUPBiCGStab:  Solving for ILambda_113_0, Initial residual = 1, Final residual = 1.30922948042e-61, No Iterations 2
DILUPBiCGStab:  Solving for ILambda_114_0, Initial residual = 1, Final residual = 3.13244237106e-61, No Iterations 2
DILUPBiCGStab:  Solving for ILambda_115_0, Initial residual = 1, Final residual = 6.80347794157e-62, No Iterations 2
DILUPBiCGStab:  Solving for ILambda_116_0, Initial residual = 1, Final residual = 5.730226912e-75, No Iterations 3
DILUPBiCGStab:  Solving for ILambda_117_0, Initial residual = 1, Final residual = 4.61560658126e-62, No Iterations 2
DILUPBiCGStab:  Solving for ILambda_118_0, Initial residual = 1, Final residual = 2.70296035949e-61, No Iterations 2
DILUPBiCGStab:  Solving for ILambda_119_0, Initial residual = 1, Final residual = 3.108245275e-62, No Iterations 2
DILUPBiCGStab:  Solving for ILambda_120_0, Initial residual = 1, Final residual = 5.09874504454e-61, No Iterations 28
DILUPBiCGStab:  Solving for ILambda_121_0, Initial residual = 1, Final residual = 5.34891420948e-61, No Iterations 36
DILUPBiCGStab:  Solving for ILambda_122_0, Initial residual = 1, Final residual = 5.39802029035e-61, No Iterations 40
DILUPBiCGStab:  Solving for ILambda_123_0, Initial residual = 1, Final residual = 1.41969239122e-61, No Iterations 40
DILUPBiCGStab:  Solving for ILambda_124_0, Initial residual = 1, Final residual = 6.15077807493e-61, No Iterations 39
DILUPBiCGStab:  Solving for ILambda_125_0, Initial residual = 1, Final residual = 1.10913057171e-61, No Iterations 39
DILUPBiCGStab:  Solving for ILambda_126_0, Initial residual = 1, Final residual = 8.47625647898e-61, No Iterations 37
DILUPBiCGStab:  Solving for ILambda_127_0, Initial residual = 1, Final residual = 8.87998938702e-62, No Iterations 28
Radiation solver iter: 1
DILUPBiCGStab:  Solving for ILambda_0_0, Initial residual = 4.1488958064e-17, Final residual = 1.75881443347e-63, No Iterations 2
DILUPBiCGStab:  Solving for ILambda_1_0, Initial residual = 4.37623256291e-17, Final residual = 1.50174783226e-63, No Iterations 2
DILUPBiCGStab:  Solving for ILambda_2_0, Initial residual = 4.36970614885e-17, Final residual = 7.83510397476e-64, No Iterations 2
DILUPBiCGStab:  Solving for ILambda_3_0, Initial residual = 5.19638526345e-17, Final residual = 1.56068951647e-63, No Iterations 2
DILUPBiCGStab:  Solving for ILambda_4_0, Initial residual = 4.78304570615e-17, Final residual = 2.74874294426e-63, No Iterations 2
DILUPBiCGStab:  Solving for ILambda_5_0, Initial residual = 4.56495470289e-17, Final residual = 3.38557541906e-64, No Iterations 2
DILUPBiCGStab:  Solving for ILambda_6_0, Initial residual = 4.79637046819e-17, Final residual = 1.55542144909e-63, No Iterations 2
DILUPBiCGStab:  Solving for ILambda_7_0, Initial residual = 4.37650449683e-17, Final residual = 9.44444191166e-63, No Iterations 2
DILUPBiCGStab:  Solving for ILambda_8_0, Initial residual = 1.60745578363e-16, Final residual = 7.47995566281e-62, No Iterations 20
DILUPBiCGStab:  Solving for ILambda_9_0, Initial residual = 7.90223653381e-16, Final residual = 7.88503221301e-61, No Iterations 25
DILUPBiCGStab:  Solving for ILambda_10_0, Initial residual = 2.01821196869e-16, Final residual = 7.93160080034e-61, No Iterations 28
DILUPBiCGStab:  Solving for ILambda_11_0, Initial residual = 1.89461800238e-16, Final residual = 7.23857357218e-61, No Iterations 29
DILUPBiCGStab:  Solving for ILambda_12_0, Initial residual = 1.7085880082e-16, Final residual = 1.36049308048e-61, No Iterations 29
DILUPBiCGStab:  Solving for ILambda_13_0, Initial residual = 1.6065312083e-16, Final residual = 5.4200882269e-62, No Iterations 27
DILUPBiCGStab:  Solving for ILambda_14_0, Initial residual = 2.59849175904e-16, Final residual = 9.50231264948e-61, No Iterations 23
DILUPBiCGStab:  Solving for ILambda_15_0, Initial residual = 2.44832984881e-16, Final residual = 1.94923609051e-61, No Iterations 20
DILUPBiCGStab:  Solving for ILambda_16_0, Initial residual = 6.87258594187e-17, Final residual = 4.5249654534e-62, No Iterations 8
DILUPBiCGStab:  Solving for ILambda_17_0, Initial residual = 7.22936324396e-17, Final residual = 8.3555477069e-62, No Iterations 8
DILUPBiCGStab:  Solving for ILambda_18_0, Initial residual = 7.87248696304e-17, Final residual = 1.00118059823e-62, No Iterations 8
DILUPBiCGStab:  Solving for ILambda_19_0, Initial residual = 7.92904921825e-17, Final residual = 7.5100280975e-61, No Iterations 7
DILUPBiCGStab:  Solving for ILambda_20_0, Initial residual = 8.24775577165e-17, Final residual = 3.66768104126e-63, No Iterations 7
DILUPBiCGStab:  Solving for ILambda_21_0, Initial residual = 7.51299032176e-17, Final residual = 2.24610742747e-61, No Iterations 8
DILUPBiCGStab:  Solving for ILambda_22_0, Initial residual = 7.02133379571e-17, Final residual = 5.11513239966e-61, No Iterations 8
DILUPBiCGStab:  Solving for ILambda_23_0, Initial residual = 6.55877419902e-17, Final residual = 2.86362650255e-62, No Iterations 8
DILUPBiCGStab:  Solving for ILambda_24_0, Initial residual = 2.38263061391e-16, Final residual = 1.66056025514e-61, No Iterations 19
DILUPBiCGStab:  Solving for ILambda_25_0, Initial residual = 2.5692860561e-16, Final residual = 9.46465988332e-61, No Iterations 23
DILUPBiCGStab:  Solving for ILambda_26_0, Initial residual = 1.66108115251e-16, Final residual = 2.23188685545e-61, No Iterations 27
DILUPBiCGStab:  Solving for ILambda_27_0, Initial residual = 1.69461060475e-16, Final residual = 7.02100947296e-62, No Iterations 27
DILUPBiCGStab:  Solving for ILambda_28_0, Initial residual = 1.89717418122e-16, Final residual = 5.21840105654e-61, No Iterations 31
DILUPBiCGStab:  Solving for ILambda_29_0, Initial residual = 2.01407857312e-16, Final residual = 2.4063824518e-61, No Iterations 28
DILUPBiCGStab:  Solving for ILambda_30_0, Initial residual = 8.37360678949e-16, Final residual = 1.47891139278e-61, No Iterations 26
DILUPBiCGStab:  Solving for ILambda_31_0, Initial residual = 1.82002652832e-16, Final residual = 8.11394218963e-64, No Iterations 20
DILUPBiCGStab:  Solving for ILambda_32_0, Initial residual = 1.8046078751e-16, Final residual = 1.00289868326e-62, No Iterations 2
DILUPBiCGStab:  Solving for ILambda_33_0, Initial residual = 1.87710545798e-16, Final residual = 5.36142088647e-63, No Iterations 2
DILUPBiCGStab:  Solving for ILambda_34_0, Initial residual = 1.93513615635e-16, Final residual = 5.09196827205e-63, No Iterations 2
DILUPBiCGStab:  Solving for ILambda_35_0, Initial residual = 1.76517745681e-16, Final residual = 1.91869679482e-61, No Iterations 2
DILUPBiCGStab:  Solving for ILambda_36_0, Initial residual = 1.76610203213e-16, Final residual = 7.58218690882e-63, No Iterations 2
DILUPBiCGStab:  Solving for ILambda_37_0, Initial residual = 2.016498785e-16, Final residual = 3.01367979042e-62, No Iterations 2
DILUPBiCGStab:  Solving for ILambda_38_0, Initial residual = 1.98267020544e-16, Final residual = 5.78946233029e-63, No Iterations 2
DILUPBiCGStab:  Solving for ILambda_39_0, Initial residual = 1.83511886084e-16, Final residual = 5.30634463402e-63, No Iterations 2
DILUPBiCGStab:  Solving for ILambda_40_0, Initial residual = 5.24767200062e-16, Final residual = 9.6857484711e-62, No Iterations 22
DILUPBiCGStab:  Solving for ILambda_41_0, Initial residual = 6.22380599726e-16, Final residual = 8.19353802726e-62, No Iterations 24
DILUPBiCGStab:  Solving for ILambda_42_0, Initial residual = 9.28518367368e-16, Final residual = 5.17839075076e-61, No Iterations 28
DILUPBiCGStab:  Solving for ILambda_43_0, Initial residual = 2.30299204631e-15, Final residual = 3.35337714766e-61, No Iterations 28
DILUPBiCGStab:  Solving for ILambda_44_0, Initial residual = 2.84651616039e-14, Final residual = 2.02375473221e-61, No Iterations 27
DILUPBiCGStab:  Solving for ILambda_45_0, Initial residual = 7.30991007085e-16, Final residual = 6.90353086453e-62, No Iterations 28
DILUPBiCGStab:  Solving for ILambda_46_0, Initial residual = 5.85125652785e-16, Final residual = 7.13531976069e-62, No Iterations 26
DILUPBiCGStab:  Solving for ILambda_47_0, Initial residual = 5.57475411873e-16, Final residual = 7.87146634078e-61, No Iterations 20
DILUPBiCGStab:  Solving for ILambda_48_0, Initial residual = 3.59328042253e-16, Final residual = 3.10833697476e-61, No Iterations 9
DILUPBiCGStab:  Solving for ILambda_49_0, Initial residual = 3.74714063406e-16, Final residual = 7.03320502593e-63, No Iterations 8
DILUPBiCGStab:  Solving for ILambda_50_0, Initial residual = 4.17375056662e-16, Final residual = 9.35095415455e-62, No Iterations 8
DILUPBiCGStab:  Solving for ILambda_51_0, Initial residual = 4.22052320073e-16, Final residual = 5.35158884357e-63, No Iterations 9
DILUPBiCGStab:  Solving for ILambda_52_0, Initial residual = 4.24978329045e-16, Final residual = 1.39574947072e-61, No Iterations 8
DILUPBiCGStab:  Solving for ILambda_53_0, Initial residual = 3.90611320327e-16, Final residual = 2.89440685621e-62, No Iterations 8
DILUPBiCGStab:  Solving for ILambda_54_0, Initial residual = 3.53954628008e-16, Final residual = 2.9916350822e-61, No Iterations 8
DILUPBiCGStab:  Solving for ILambda_55_0, Initial residual = 3.20914656816e-16, Final residual = 3.83986603391e-61, No Iterations 7
DILUPBiCGStab:  Solving for ILambda_56_0, Initial residual = 5.39527773201e-16, Final residual = 4.87693861152e-61, No Iterations 19
DILUPBiCGStab:  Solving for ILambda_57_0, Initial residual = 5.71860716203e-16, Final residual = 1.12863149677e-61, No Iterations 25
DILUPBiCGStab:  Solving for ILambda_58_0, Initial residual = 7.43407509839e-16, Final residual = 2.56253187657e-61, No Iterations 29
DILUPBiCGStab:  Solving for ILambda_59_0, Initial residual = 2.87310096421e-14, Final residual = 5.72246669871e-61, No Iterations 27
DILUPBiCGStab:  Solving for ILambda_60_0, Initial residual = 2.16988583151e-15, Final residual = 3.97412066564e-61, No Iterations 27
DILUPBiCGStab:  Solving for ILambda_61_0, Initial residual = 9.40749955057e-16, Final residual = 4.03931489602e-61, No Iterations 27
DILUPBiCGStab:  Solving for ILambda_62_0, Initial residual = 6.1047533274e-16, Final residual = 9.04581742665e-61, No Iterations 24
DILUPBiCGStab:  Solving for ILambda_63_0, Initial residual = 5.00304024684e-16, Final residual = 1.76858459755e-61, No Iterations 21
DILUPBiCGStab:  Solving for ILambda_64_0, Initial residual = 4.30455078179e-16, Final residual = 7.55683238595e-62, No Iterations 9
DILUPBiCGStab:  Solving for ILambda_65_0, Initial residual = 3.79249921179e-16, Final residual = 1.37645300522e-61, No Iterations 9
DILUPBiCGStab:  Solving for ILambda_66_0, Initial residual = 4.03495549422e-16, Final residual = 3.71359685168e-61, No Iterations 9
DILUPBiCGStab:  Solving for ILambda_67_0, Initial residual = 4.2138880131e-16, Final residual = 1.3740345051e-65, No Iterations 8
DILUPBiCGStab:  Solving for ILambda_68_0, Initial residual = 4.22868121831e-16, Final residual = 2.5041682178e-61, No Iterations 9
DILUPBiCGStab:  Solving for ILambda_69_0, Initial residual = 4.13274293159e-16, Final residual = 2.20210228145e-62, No Iterations 9
DILUPBiCGStab:  Solving for ILambda_70_0, Initial residual = 4.12447614045e-16, Final residual = 2.18596878814e-61, No Iterations 9
DILUPBiCGStab:  Solving for ILambda_71_0, Initial residual = 4.66828959221e-16, Final residual = 3.26417388487e-62, No Iterations 9
DILUPBiCGStab:  Solving for ILambda_72_0, Initial residual = 4.23101985002e-16, Final residual = 2.0841729239e-61, No Iterations 20
DILUPBiCGStab:  Solving for ILambda_73_0, Initial residual = 1.51272488351e-15, Final residual = 1.06117888771e-61, No Iterations 25
DILUPBiCGStab:  Solving for ILambda_74_0, Initial residual = 6.316970558e-16, Final residual = 6.58785084125e-62, No Iterations 29
DILUPBiCGStab:  Solving for ILambda_75_0, Initial residual = 7.13108632553e-16, Final residual = 7.5481795743e-61, No Iterations 31
DILUPBiCGStab:  Solving for ILambda_76_0, Initial residual = 6.85235405827e-16, Final residual = 2.21963913586e-61, No Iterations 29
DILUPBiCGStab:  Solving for ILambda_77_0, Initial residual = 6.00196230591e-16, Final residual = 2.75188887513e-61, No Iterations 30
DILUPBiCGStab:  Solving for ILambda_78_0, Initial residual = 5.34953844678e-16, Final residual = 6.41529027478e-61, No Iterations 26
DILUPBiCGStab:  Solving for ILambda_79_0, Initial residual = 1.8542521314e-15, Final residual = 1.57720399356e-61, No Iterations 21
DILUPBiCGStab:  Solving for ILambda_80_0, Initial residual = 2.12788291834e-16, Final residual = 2.33715103289e-62, No Iterations 2
DILUPBiCGStab:  Solving for ILambda_81_0, Initial residual = 2.09867721541e-16, Final residual = 4.69688564486e-63, No Iterations 2
DILUPBiCGStab:  Solving for ILambda_82_0, Initial residual = 2.22088431873e-16, Final residual = 1.0407218441e-62, No Iterations 2
DILUPBiCGStab:  Solving for ILambda_83_0, Initial residual = 1.90255847282e-16, Final residual = 2.44852208951e-63, No Iterations 2
DILUPBiCGStab:  Solving for ILambda_84_0, Initial residual = 1.89293201208e-16, Final residual = 4.2436318066e-63, No Iterations 2
DILUPBiCGStab:  Solving for ILambda_85_0, Initial residual = 1.67864808369e-16, Final residual = 2.04975829987e-63, No Iterations 2
DILUPBiCGStab:  Solving for ILambda_86_0, Initial residual = 1.71916623766e-16, Final residual = 2.43094117886e-63, No Iterations 2
DILUPBiCGStab:  Solving for ILambda_87_0, Initial residual = 1.73281732041e-16, Final residual = 4.81378099474e-62, No Iterations 2
DILUPBiCGStab:  Solving for ILambda_88_0, Initial residual = 1.88959266355e-15, Final residual = 8.46050507739e-61, No Iterations 20
DILUPBiCGStab:  Solving for ILambda_89_0, Initial residual = 5.11964551143e-16, Final residual = 8.92700895136e-61, No Iterations 26
DILUPBiCGStab:  Solving for ILambda_90_0, Initial residual = 6.18100359836e-16, Final residual = 1.25298372253e-61, No Iterations 29
DILUPBiCGStab:  Solving for ILambda_91_0, Initial residual = 6.74423313197e-16, Final residual = 2.69177582062e-61, No Iterations 29
DILUPBiCGStab:  Solving for ILambda_92_0, Initial residual = 7.40970981922e-16, Final residual = 3.91949178763e-61, No Iterations 30
DILUPBiCGStab:  Solving for ILambda_93_0, Initial residual = 6.30663706907e-16, Final residual = 2.65837617886e-61, No Iterations 27
DILUPBiCGStab:  Solving for ILambda_94_0, Initial residual = 1.49724096614e-15, Final residual = 4.80839943092e-61, No Iterations 26
DILUPBiCGStab:  Solving for ILambda_95_0, Initial residual = 4.67758973225e-16, Final residual = 1.8255213929e-61, No Iterations 21
DILUPBiCGStab:  Solving for ILambda_96_0, Initial residual = 9.37791314016e-17, Final residual = 3.79476048494e-61, No Iterations 9
DILUPBiCGStab:  Solving for ILambda_97_0, Initial residual = 9.39042210044e-17, Final residual = 1.46597446927e-61, No Iterations 10
DILUPBiCGStab:  Solving for ILambda_98_0, Initial residual = 8.90393231886e-17, Final residual = 2.75094393929e-61, No Iterations 8
DILUPBiCGStab:  Solving for ILambda_99_0, Initial residual = 9.11168983319e-17, Final residual = 1.31961991662e-65, No Iterations 8
DILUPBiCGStab:  Solving for ILambda_100_0, Initial residual = 9.68519846894e-17, Final residual = 3.82997994314e-61, No Iterations 8
DILUPBiCGStab:  Solving for ILambda_101_0, Initial residual = 9.69009327949e-17, Final residual = 2.81129393077e-63, No Iterations 9
DILUPBiCGStab:  Solving for ILambda_102_0, Initial residual = 9.01515329184e-17, Final residual = 6.18866603431e-63, No Iterations 9
DILUPBiCGStab:  Solving for ILambda_103_0, Initial residual = 1.0028651009e-16, Final residual = 2.51057216287e-61, No Iterations 9
DILUPBiCGStab:  Solving for ILambda_104_0, Initial residual = 1.3447676176e-16, Final residual = 6.86356402465e-61, No Iterations 19
DILUPBiCGStab:  Solving for ILambda_105_0, Initial residual = 1.41022211197e-16, Final residual = 6.34139951578e-61, No Iterations 24
DILUPBiCGStab:  Solving for ILambda_106_0, Initial residual = 1.49533742871e-16, Final residual = 7.03528427532e-62, No Iterations 26
DILUPBiCGStab:  Solving for ILambda_107_0, Initial residual = 1.52288433473e-16, Final residual = 9.69318971831e-61, No Iterations 28
DILUPBiCGStab:  Solving for ILambda_108_0, Initial residual = 1.57999045778e-16, Final residual = 1.6242036734e-61, No Iterations 30
DILUPBiCGStab:  Solving for ILambda_109_0, Initial residual = 2.01483998809e-16, Final residual = 6.23463312805e-62, No Iterations 28
DILUPBiCGStab:  Solving for ILambda_110_0, Initial residual = 1.25519802327e-15, Final residual = 4.47258528827e-61, No Iterations 25
DILUPBiCGStab:  Solving for ILambda_111_0, Initial residual = 1.49759448024e-16, Final residual = 9.71891734257e-62, No Iterations 20
DILUPBiCGStab:  Solving for ILambda_112_0, Initial residual = 4.42599647014e-17, Final residual = 2.67158729513e-63, No Iterations 2
DILUPBiCGStab:  Solving for ILambda_113_0, Initial residual = 5.22602606065e-17, Final residual = 2.27469148465e-63, No Iterations 2
DILUPBiCGStab:  Solving for ILambda_114_0, Initial residual = 4.49289221428e-17, Final residual = 4.86865966527e-63, No Iterations 2
DILUPBiCGStab:  Solving for ILambda_115_0, Initial residual = 4.31341582756e-17, Final residual = 1.41845826142e-63, No Iterations 2
DILUPBiCGStab:  Solving for ILambda_116_0, Initial residual = 4.53612970745e-17, Final residual = 3.64858626252e-63, No Iterations 2
DILUPBiCGStab:  Solving for ILambda_117_0, Initial residual = 4.36317973479e-17, Final residual = 2.0099116056e-63, No Iterations 2
DILUPBiCGStab:  Solving for ILambda_118_0, Initial residual = 4.1913174978e-17, Final residual = 9.60567105061e-64, No Iterations 2
DILUPBiCGStab:  Solving for ILambda_119_0, Initial residual = 3.93162060489e-17, Final residual = 3.94776821522e-64, No Iterations 2
DILUPBiCGStab:  Solving for ILambda_120_0, Initial residual = 1.56875958691e-16, Final residual = 5.29451773544e-61, No Iterations 21
DILUPBiCGStab:  Solving for ILambda_121_0, Initial residual = 1.26804690096e-15, Final residual = 5.80922270734e-61, No Iterations 27
DILUPBiCGStab:  Solving for ILambda_122_0, Initial residual = 1.90076370896e-16, Final residual = 5.44451007118e-61, No Iterations 27
DILUPBiCGStab:  Solving for ILambda_123_0, Initial residual = 1.54741277425e-16, Final residual = 7.30654438794e-61, No Iterations 29
DILUPBiCGStab:  Solving for ILambda_124_0, Initial residual = 1.58366156569e-16, Final residual = 2.17119555796e-61, No Iterations 29
DILUPBiCGStab:  Solving for ILambda_125_0, Initial residual = 1.50039539961e-16, Final residual = 7.92979223152e-61, No Iterations 28
DILUPBiCGStab:  Solving for ILambda_126_0, Initial residual = 1.45117536022e-16, Final residual = 6.83112331358e-61, No Iterations 25
DILUPBiCGStab:  Solving for ILambda_127_0, Initial residual = 1.44271821533e-16, Final residual = 6.3110513089e-61, No Iterations 21
min/max(T) = 1000, 1000
PIMPLE: iteration 2
Radiation solver iter: 0
DILUPBiCGStab:  Solving for ILambda_0_0, Initial residual = 4.11707953784e-17, Final residual = 4.02897242786e-63, No Iterations 2
DILUPBiCGStab:  Solving for ILambda_1_0, Initial residual = 4.1236059519e-17, Final residual = 7.55576531333e-64, No Iterations 2
DILUPBiCGStab:  Solving for ILambda_2_0, Initial residual = 3.74806520938e-17, Final residual = 6.02083672153e-64, No Iterations 2
DILUPBiCGStab:  Solving for ILambda_3_0, Initial residual = 4.45264599423e-17, Final residual = 2.49534751901e-63, No Iterations 2
DILUPBiCGStab:  Solving for ILambda_4_0, Initial residual = 4.81431810686e-17, Final residual = 7.0885218769e-64, No Iterations 2
DILUPBiCGStab:  Solving for ILambda_5_0, Initial residual = 4.27860828589e-17, Final residual = 6.65735513972e-64, No Iterations 2
DILUPBiCGStab:  Solving for ILambda_6_0, Initial residual = 4.46379528492e-17, Final residual = 9.11064428185e-64, No Iterations 2
DILUPBiCGStab:  Solving for ILambda_7_0, Initial residual = 4.55298961044e-17, Final residual = 1.22827471327e-63, No Iterations 2
DILUPBiCGStab:  Solving for ILambda_8_0, Initial residual = 5.07129566058e-17, Final residual = 8.98102812195e-62, No Iterations 20
DILUPBiCGStab:  Solving for ILambda_9_0, Initial residual = 5.44629253526e-17, Final residual = 3.84206585941e-61, No Iterations 24
DILUPBiCGStab:  Solving for ILambda_10_0, Initial residual = 5.61407576346e-17, Final residual = 2.14491721929e-61, No Iterations 28
DILUPBiCGStab:  Solving for ILambda_11_0, Initial residual = 5.98444976151e-17, Final residual = 4.70962007014e-64, No Iterations 29
DILUPBiCGStab:  Solving for ILambda_12_0, Initial residual = 6.5598619347e-17, Final residual = 8.53958683911e-61, No Iterations 27
DILUPBiCGStab:  Solving for ILambda_13_0, Initial residual = 5.99777452355e-17, Final residual = 4.30854464515e-61, No Iterations 25
DILUPBiCGStab:  Solving for ILambda_14_0, Initial residual = 5.91102760331e-17, Final residual = 8.16837113092e-61, No Iterations 23
DILUPBiCGStab:  Solving for ILambda_15_0, Initial residual = 5.31032557562e-17, Final residual = 7.49029280493e-61, No Iterations 20
DILUPBiCGStab:  Solving for ILambda_16_0, Initial residual = 4.59432356617e-17, Final residual = 1.4277716804e-62, No Iterations 7
DILUPBiCGStab:  Solving for ILambda_17_0, Initial residual = 4.55027027125e-17, Final residual = 2.00439327208e-61, No Iterations 7
DILUPBiCGStab:  Solving for ILambda_18_0, Initial residual = 5.05334802191e-17, Final residual = 2.39867623056e-62, No Iterations 7
DILUPBiCGStab:  Solving for ILambda_19_0, Initial residual = 4.55162994084e-17, Final residual = 1.43204561632e-62, No Iterations 8
DILUPBiCGStab:  Solving for ILambda_20_0, Initial residual = 4.76156292653e-17, Final residual = 6.62091346495e-61, No Iterations 8
DILUPBiCGStab:  Solving for ILambda_21_0, Initial residual = 4.44965472112e-17, Final residual = 1.19602110561e-62, No Iterations 8
DILUPBiCGStab:  Solving for ILambda_22_0, Initial residual = 4.79011598805e-17, Final residual = 6.05495341299e-63, No Iterations 8
DILUPBiCGStab:  Solving for ILambda_23_0, Initial residual = 4.27616088062e-17, Final residual = 2.96091707595e-61, No Iterations 7
DILUPBiCGStab:  Solving for ILambda_24_0, Initial residual = 4.94348671852e-17, Final residual = 3.95770771499e-61, No Iterations 18
DILUPBiCGStab:  Solving for ILambda_25_0, Initial residual = 5.5357587947e-17, Final residual = 1.16853884404e-61, No Iterations 24
DILUPBiCGStab:  Solving for ILambda_26_0, Initial residual = 5.77070970096e-17, Final residual = 8.85868994838e-61, No Iterations 25
DILUPBiCGStab:  Solving for ILambda_27_0, Initial residual = 5.64942717296e-17, Final residual = 4.86477147626e-61, No Iterations 28
DILUPBiCGStab:  Solving for ILambda_28_0, Initial residual = 5.73073541483e-17, Final residual = 2.93763827694e-61, No Iterations 28
DILUPBiCGStab:  Solving for ILambda_29_0, Initial residual = 5.53249558767e-17, Final residual = 1.11692735949e-61, No Iterations 28
DILUPBiCGStab:  Solving for ILambda_30_0, Initial residual = 6.04318748807e-17, Final residual = 5.15233708389e-61, No Iterations 25
DILUPBiCGStab:  Solving for ILambda_31_0, Initial residual = 4.90324049847e-17, Final residual = 4.18407581124e-62, No Iterations 20
DILUPBiCGStab:  Solving for ILambda_32_0, Initial residual = 1.7247680764e-16, Final residual = 7.34900085425e-63, No Iterations 2
DILUPBiCGStab:  Solving for ILambda_33_0, Initial residual = 1.82701523005e-16, Final residual = 1.46754266107e-62, No Iterations 2
DILUPBiCGStab:  Solving for ILambda_34_0, Initial residual = 1.59293451234e-16, Final residual = 1.47490048636e-63, No Iterations 2
DILUPBiCGStab:  Solving for ILambda_35_0, Initial residual = 1.56971135563e-16, Final residual = 8.52924120194e-63, No Iterations 2
DILUPBiCGStab:  Solving for ILambda_36_0, Initial residual = 1.52663702282e-16, Final residual = 1.00185204008e-62, No Iterations 2
DILUPBiCGStab:  Solving for ILambda_37_0, Initial residual = 1.95275747432e-16, Final residual = 6.35972351209e-63, No Iterations 2
DILUPBiCGStab:  Solving for ILambda_38_0, Initial residual = 1.85812447041e-16, Final residual = 4.83391447847e-63, No Iterations 2
DILUPBiCGStab:  Solving for ILambda_39_0, Initial residual = 1.81923791996e-16, Final residual = 3.70508023685e-63, No Iterations 2
DILUPBiCGStab:  Solving for ILambda_40_0, Initial residual = 1.82804857894e-16, Final residual = 5.1632428266e-61, No Iterations 20
DILUPBiCGStab:  Solving for ILambda_41_0, Initial residual = 2.08203485955e-16, Final residual = 1.17823727187e-61, No Iterations 26
DILUPBiCGStab:  Solving for ILambda_42_0, Initial residual = 2.41575216528e-16, Final residual = 8.8539776425e-62, No Iterations 28
DILUPBiCGStab:  Solving for ILambda_43_0, Initial residual = 2.51517120617e-16, Final residual = 3.2650035224e-61, No Iterations 29
DILUPBiCGStab:  Solving for ILambda_44_0, Initial residual = 2.77035399602e-16, Final residual = 7.39468446535e-61, No Iterations 29
DILUPBiCGStab:  Solving for ILambda_45_0, Initial residual = 2.52642927043e-16, Final residual = 6.25712254131e-61, No Iterations 29
DILUPBiCGStab:  Solving for ILambda_46_0, Initial residual = 2.19662781313e-16, Final residual = 2.16614310354e-61, No Iterations 25
DILUPBiCGStab:  Solving for ILambda_47_0, Initial residual = 2.11129494926e-16, Final residual = 7.6335460602e-61, No Iterations 20
DILUPBiCGStab:  Solving for ILambda_48_0, Initial residual = 2.09960179073e-16, Final residual = 4.17324044578e-62, No Iterations 8
DILUPBiCGStab:  Solving for ILambda_49_0, Initial residual = 2.13413739848e-16, Final residual = 2.41077859108e-61, No Iterations 7
DILUPBiCGStab:  Solving for ILambda_50_0, Initial residual = 2.26836398103e-16, Final residual = 1.34433433487e-62, No Iterations 7
DILUPBiCGStab:  Solving for ILambda_51_0, Initial residual = 2.05538533546e-16, Final residual = 8.02354957991e-61, No Iterations 8
DILUPBiCGStab:  Solving for ILambda_52_0, Initial residual = 1.74744736527e-16, Final residual = 9.21028961235e-61, No Iterations 8
DILUPBiCGStab:  Solving for ILambda_53_0, Initial residual = 1.93285191143e-16, Final residual = 3.55314719876e-61, No Iterations 8
DILUPBiCGStab:  Solving for ILambda_54_0, Initial residual = 1.86263857347e-16, Final residual = 1.28411168684e-61, No Iterations 8
DILUPBiCGStab:  Solving for ILambda_55_0, Initial residual = 1.63883695791e-16, Final residual = 4.51335478672e-65, No Iterations 8
DILUPBiCGStab:  Solving for ILambda_56_0, Initial residual = 1.94688370167e-16, Final residual = 3.74123133586e-64, No Iterations 20
DILUPBiCGStab:  Solving for ILambda_57_0, Initial residual = 2.24209516443e-16, Final residual = 5.4264273626e-61, No Iterations 24
DILUPBiCGStab:  Solving for ILambda_58_0, Initial residual = 2.66130849439e-16, Final residual = 1.69812229857e-61, No Iterations 27
DILUPBiCGStab:  Solving for ILambda_59_0, Initial residual = 2.78373314485e-16, Final residual = 1.81491816257e-61, No Iterations 30
DILUPBiCGStab:  Solving for ILambda_60_0, Initial residual = 2.76312055376e-16, Final residual = 9.43367353716e-61, No Iterations 30
DILUPBiCGStab:  Solving for ILambda_61_0, Initial residual = 2.56314034953e-16, Final residual = 5.20129977968e-61, No Iterations 27
DILUPBiCGStab:  Solving for ILambda_62_0, Initial residual = 2.2718447352e-16, Final residual = 4.79835632953e-61, No Iterations 25
DILUPBiCGStab:  Solving for ILambda_63_0, Initial residual = 2.06087840063e-16, Final residual = 6.47436390376e-63, No Iterations 22
DILUPBiCGStab:  Solving for ILambda_64_0, Initial residual = 1.94639422061e-16, Final residual = 4.1687053565e-62, No Iterations 8
DILUPBiCGStab:  Solving for ILambda_65_0, Initial residual = 1.76066335375e-16, Final residual = 5.87719830642e-62, No Iterations 8
DILUPBiCGStab:  Solving for ILambda_66_0, Initial residual = 1.91843941371e-16, Final residual = 2.62849904168e-61, No Iterations 10
DILUPBiCGStab:  Solving for ILambda_67_0, Initial residual = 1.91892889476e-16, Final residual = 6.31132339286e-62, No Iterations 9
DILUPBiCGStab:  Solving for ILambda_68_0, Initial residual = 1.85937536644e-16, Final residual = 1.64817046506e-61, No Iterations 9
DILUPBiCGStab:  Solving for ILambda_69_0, Initial residual = 1.9838123279e-16, Final residual = 2.22551607263e-61, No Iterations 8
DILUPBiCGStab:  Solving for ILambda_70_0, Initial residual = 1.95052761618e-16, Final residual = 7.44322741785e-62, No Iterations 9
DILUPBiCGStab:  Solving for ILambda_71_0, Initial residual = 2.31829104861e-16, Final residual = 1.38742230638e-63, No Iterations 8
DILUPBiCGStab:  Solving for ILambda_72_0, Initial residual = 1.74445609216e-16, Final residual = 1.86125083313e-61, No Iterations 20
DILUPBiCGStab:  Solving for ILambda_73_0, Initial residual = 2.23197922263e-16, Final residual = 3.56665498033e-61, No Iterations 26
DILUPBiCGStab:  Solving for ILambda_74_0, Initial residual = 2.30208378702e-16, Final residual = 2.96345032019e-61, No Iterations 28
DILUPBiCGStab:  Solving for ILambda_75_0, Initial residual = 2.21310700864e-16, Final residual = 2.05188310261e-61, No Iterations 29
DILUPBiCGStab:  Solving for ILambda_76_0, Initial residual = 2.25563747361e-16, Final residual = 1.06215465634e-61, No Iterations 32
DILUPBiCGStab:  Solving for ILambda_77_0, Initial residual = 2.43571211496e-16, Final residual = 6.56377178415e-62, No Iterations 29
DILUPBiCGStab:  Solving for ILambda_78_0, Initial residual = 2.31306991736e-16, Final residual = 1.81822240231e-61, No Iterations 26
DILUPBiCGStab:  Solving for ILambda_79_0, Initial residual = 2.35679689158e-16, Final residual = 4.08581630765e-63, No Iterations 21
DILUPBiCGStab:  Solving for ILambda_80_0, Initial residual = 1.83734871898e-16, Final residual = 1.69336953891e-62, No Iterations 2
DILUPBiCGStab:  Solving for ILambda_81_0, Initial residual = 1.92360615818e-16, Final residual = 1.09670809413e-62, No Iterations 2
DILUPBiCGStab:  Solving for ILambda_82_0, Initial residual = 1.94323978715e-16, Final residual = 6.02270735027e-63, No Iterations 2
DILUPBiCGStab:  Solving for ILambda_83_0, Initial residual = 1.49193825472e-16, Final residual = 1.71345189726e-63, No Iterations 2
DILUPBiCGStab:  Solving for ILambda_84_0, Initial residual = 1.55682168786e-16, Final residual = 1.06866946166e-62, No Iterations 2
DILUPBiCGStab:  Solving for ILambda_85_0, Initial residual = 1.49732254632e-16, Final residual = 3.85276450241e-63, No Iterations 2
DILUPBiCGStab:  Solving for ILambda_86_0, Initial residual = 1.74168236618e-16, Final residual = 3.53758840054e-63, No Iterations 2
DILUPBiCGStab:  Solving for ILambda_87_0, Initial residual = 1.73325241468e-16, Final residual = 5.86118609253e-63, No Iterations 2
DILUPBiCGStab:  Solving for ILambda_88_0, Initial residual = 2.4278260313e-16, Final residual = 5.6078543431e-61, No Iterations 19
DILUPBiCGStab:  Solving for ILambda_89_0, Initial residual = 2.35924429686e-16, Final residual = 2.98108286407e-61, No Iterations 27
DILUPBiCGStab:  Solving for ILambda_90_0, Initial residual = 2.59805666476e-16, Final residual = 1.22135412924e-61, No Iterations 27
DILUPBiCGStab:  Solving for ILambda_91_0, Initial residual = 2.69872660168e-16, Final residual = 3.44528608359e-62, No Iterations 29
DILUPBiCGStab:  Solving for ILambda_92_0, Initial residual = 2.25895506743e-16, Final residual = 3.38778849351e-61, No Iterations 29
DILUPBiCGStab:  Solving for ILambda_93_0, Initial residual = 2.1973892281e-16, Final residual = 1.39056486585e-61, No Iterations 28
DILUPBiCGStab:  Solving for ILambda_94_0, Initial residual = 2.31035057817e-16, Final residual = 1.47966211937e-61, No Iterations 27
DILUPBiCGStab:  Solving for ILambda_95_0, Initial residual = 1.77969872809e-16, Final residual = 1.78414586334e-61, No Iterations 20
DILUPBiCGStab:  Solving for ILambda_96_0, Initial residual = 4.26392385425e-17, Final residual = 4.8205277827e-61, No Iterations 7
DILUPBiCGStab:  Solving for ILambda_97_0, Initial residual = 4.37813610035e-17, Final residual = 2.58073026145e-61, No Iterations 8
DILUPBiCGStab:  Solving for ILambda_98_0, Initial residual = 4.2081774008e-17, Final residual = 3.96858745097e-62, No Iterations 8
DILUPBiCGStab:  Solving for ILambda_99_0, Initial residual = 4.67644760979e-17, Final residual = 1.15418685594e-61, No Iterations 8
DILUPBiCGStab:  Solving for ILambda_100_0, Initial residual = 4.66828959221e-17, Final residual = 1.46965807342e-62, No Iterations 8
DILUPBiCGStab:  Solving for ILambda_101_0, Initial residual = 5.06857632139e-17, Final residual = 2.91585348363e-62, No Iterations 9
DILUPBiCGStab:  Solving for ILambda_102_0, Initial residual = 4.72648345094e-17, Final residual = 5.14059758247e-65, No Iterations 6
DILUPBiCGStab:  Solving for ILambda_103_0, Initial residual = 4.47086556682e-17, Final residual = 5.2562844705e-62, No Iterations 8
DILUPBiCGStab:  Solving for ILambda_104_0, Initial residual = 4.61036766741e-17, Final residual = 7.67970283128e-62, No Iterations 20
DILUPBiCGStab:  Solving for ILambda_105_0, Initial residual = 5.26545647894e-17, Final residual = 7.33804178333e-61, No Iterations 24
DILUPBiCGStab:  Solving for ILambda_106_0, Initial residual = 5.03594425108e-17, Final residual = 6.44875192822e-62, No Iterations 26
DILUPBiCGStab:  Solving for ILambda_107_0, Initial residual = 5.44275739431e-17, Final residual = 7.74295780778e-62, No Iterations 27
DILUPBiCGStab:  Solving for ILambda_108_0, Initial residual = 5.91320307466e-17, Final residual = 9.96887366256e-61, No Iterations 30
DILUPBiCGStab:  Solving for ILambda_109_0, Initial residual = 6.02116084061e-17, Final residual = 4.47111757358e-61, No Iterations 28
DILUPBiCGStab:  Solving for ILambda_110_0, Initial residual = 5.99505518436e-17, Final residual = 4.50218548198e-61, No Iterations 25
DILUPBiCGStab:  Solving for ILambda_111_0, Initial residual = 4.4240929327e-17, Final residual = 6.66521011754e-62, No Iterations 20
DILUPBiCGStab:  Solving for ILambda_112_0, Initial residual = 4.25141489396e-17, Final residual = 2.17066529242e-63, No Iterations 2
DILUPBiCGStab:  Solving for ILambda_113_0, Initial residual = 4.61471861012e-17, Final residual = 4.02104233731e-62, No Iterations 2
DILUPBiCGStab:  Solving for ILambda_114_0, Initial residual = 3.88729537605e-17, Final residual = 1.08961184224e-63, No Iterations 2
DILUPBiCGStab:  Solving for ILambda_115_0, Initial residual = 3.94168215991e-17, Final residual = 2.77146379333e-63, No Iterations 2
DILUPBiCGStab:  Solving for ILambda_116_0, Initial residual = 5.4778368699e-17, Final residual = 7.2934538589e-64, No Iterations 2
DILUPBiCGStab:  Solving for ILambda_117_0, Initial residual = 4.45536533342e-17, Final residual = 1.66055186735e-63, No Iterations 2
DILUPBiCGStab:  Solving for ILambda_118_0, Initial residual = 4.83444121689e-17, Final residual = 9.97753585689e-64, No Iterations 2
DILUPBiCGStab:  Solving for ILambda_119_0, Initial residual = 3.93705928328e-17, Final residual = 7.73374032582e-63, No Iterations 2
DILUPBiCGStab:  Solving for ILambda_120_0, Initial residual = 4.6342978523e-17, Final residual = 6.13057724325e-63, No Iterations 20
DILUPBiCGStab:  Solving for ILambda_121_0, Initial residual = 5.99587098612e-17, Final residual = 1.57202202365e-61, No Iterations 24
DILUPBiCGStab:  Solving for ILambda_122_0, Initial residual = 6.49949260462e-17, Final residual = 3.60161634732e-61, No Iterations 27
DILUPBiCGStab:  Solving for ILambda_123_0, Initial residual = 5.50339865831e-17, Final residual = 2.1503182905e-61, No Iterations 29
DILUPBiCGStab:  Solving for ILambda_124_0, Initial residual = 6.09186365962e-17, Final residual = 5.44847731949e-61, No Iterations 27
DILUPBiCGStab:  Solving for ILambda_125_0, Initial residual = 4.90052115928e-17, Final residual = 5.33788075906e-62, No Iterations 27
DILUPBiCGStab:  Solving for ILambda_126_0, Initial residual = 4.92472327809e-17, Final residual = 7.74190219733e-61, No Iterations 25
DILUPBiCGStab:  Solving for ILambda_127_0, Initial residual = 4.70173746428e-17, Final residual = 3.44543935688e-62, No Iterations 20
min/max(T) = 1000, 1000
PIMPLE: iteration 3
Radiation solver iter: 0
DILUPBiCGStab:  Solving for ILambda_0_0, Initial residual = 4.31749483635e-17, Final residual = 9.453063058e-63, No Iterations 2
DILUPBiCGStab:  Solving for ILambda_1_0, Initial residual = 3.79320623998e-17, Final residual = 6.78788814054e-64, No Iterations 2
DILUPBiCGStab:  Solving for ILambda_2_0, Initial residual = 4.31232809188e-17, Final residual = 5.23042443623e-64, No Iterations 2
DILUPBiCGStab:  Solving for ILambda_3_0, Initial residual = 4.8246515958e-17, Final residual = 9.47766050714e-64, No Iterations 2
DILUPBiCGStab:  Solving for ILambda_4_0, Initial residual = 4.87659097438e-17, Final residual = 7.93543521434e-64, No Iterations 2
DILUPBiCGStab:  Solving for ILambda_5_0, Initial residual = 3.99144606714e-17, Final residual = 5.50187400033e-64, No Iterations 2
DILUPBiCGStab:  Solving for ILambda_6_0, Initial residual = 4.57392852222e-17, Final residual = 2.05026076582e-63, No Iterations 2
DILUPBiCGStab:  Solving for ILambda_7_0, Initial residual = 4.45454953166e-17, Final residual = 7.79418889282e-64, No Iterations 2
DILUPBiCGStab:  Solving for ILambda_8_0, Initial residual = 4.54945446949e-17, Final residual = 5.70969668335e-61, No Iterations 20
DILUPBiCGStab:  Solving for ILambda_9_0, Initial residual = 4.34577596395e-17, Final residual = 7.71008692659e-61, No Iterations 26
DILUPBiCGStab:  Solving for ILambda_10_0, Initial residual = 4.32456511825e-17, Final residual = 2.88927145024e-61, No Iterations 27
DILUPBiCGStab:  Solving for ILambda_11_0, Initial residual = 4.2533184314e-17, Final residual = 5.99175293817e-61, No Iterations 26
DILUPBiCGStab:  Solving for ILambda_12_0, Initial residual = 5.37776518761e-17, Final residual = 7.70729794925e-61, No Iterations 26
DILUPBiCGStab:  Solving for ILambda_13_0, Initial residual = 4.64218393596e-17, Final residual = 8.68501617583e-61, No Iterations 26
DILUPBiCGStab:  Solving for ILambda_14_0, Initial residual = 4.567945976e-17, Final residual = 9.54735403731e-62, No Iterations 24
DILUPBiCGStab:  Solving for ILambda_15_0, Initial residual = 4.25413423316e-17, Final residual = 2.49541020595e-61, No Iterations 19
DILUPBiCGStab:  Solving for ILambda_16_0, Initial residual = 4.35393398153e-17, Final residual = 9.43701126257e-62, No Iterations 7
DILUPBiCGStab:  Solving for ILambda_17_0, Initial residual = 4.10402670972e-17, Final residual = 2.20238756223e-61, No Iterations 7
DILUPBiCGStab:  Solving for ILambda_18_0, Initial residual = 4.22558117163e-17, Final residual = 1.61118559896e-61, No Iterations 7
DILUPBiCGStab:  Solving for ILambda_19_0, Initial residual = 4.08798260848e-17, Final residual = 1.39854844303e-61, No Iterations 7
DILUPBiCGStab:  Solving for ILambda_20_0, Initial residual = 4.49289221428e-17, Final residual = 6.92172956466e-63, No Iterations 8
DILUPBiCGStab:  Solving for ILambda_21_0, Initial residual = 3.5691326905e-17, Final residual = 3.35338687179e-62, No Iterations 8
DILUPBiCGStab:  Solving for ILambda_22_0, Initial residual = 4.38439058049e-17, Final residual = 2.22667983953e-62, No Iterations 8
DILUPBiCGStab:  Solving for ILambda_23_0, Initial residual = 4.12143048055e-17, Final residual = 1.02597292012e-63, No Iterations 7
DILUPBiCGStab:  Solving for ILambda_24_0, Initial residual = 4.4648830206e-17, Final residual = 5.00557967262e-61, No Iterations 19
DILUPBiCGStab:  Solving for ILambda_25_0, Initial residual = 5.15559517556e-17, Final residual = 8.32389895622e-62, No Iterations 24
DILUPBiCGStab:  Solving for ILambda_26_0, Initial residual = 5.03295297796e-17, Final residual = 5.2132787477e-61, No Iterations 26
DILUPBiCGStab:  Solving for ILambda_27_0, Initial residual = 4.85945913746e-17, Final residual = 2.84686202918e-61, No Iterations 26
DILUPBiCGStab:  Solving for ILambda_28_0, Initial residual = 5.3410541085e-17, Final residual = 5.40474590169e-61, No Iterations 26
DILUPBiCGStab:  Solving for ILambda_29_0, Initial residual = 4.22911631258e-17, Final residual = 7.34748046974e-61, No Iterations 27
DILUPBiCGStab:  Solving for ILambda_30_0, Initial residual = 4.57827946493e-17, Final residual = 3.80970595643e-61, No Iterations 25
DILUPBiCGStab:  Solving for ILambda_31_0, Initial residual = 4.29574012281e-17, Final residual = 3.74815995158e-62, No Iterations 21
DILUPBiCGStab:  Solving for ILambda_32_0, Initial residual = 1.74440170537e-16, Final residual = 7.11149736087e-63, No Iterations 2
DILUPBiCGStab:  Solving for ILambda_33_0, Initial residual = 1.74277010186e-16, Final residual = 1.46550671066e-62, No Iterations 2
DILUPBiCGStab:  Solving for ILambda_34_0, Initial residual = 1.45832722229e-16, Final residual = 1.4303199889e-63, No Iterations 2
DILUPBiCGStab:  Solving for ILambda_35_0, Initial residual = 1.68936228011e-16, Final residual = 6.49449160671e-63, No Iterations 2
DILUPBiCGStab:  Solving for ILambda_36_0, Initial residual = 1.81254834554e-16, Final residual = 8.89819700417e-63, No Iterations 2
DILUPBiCGStab:  Solving for ILambda_37_0, Initial residual = 1.891191635e-16, Final residual = 1.49471301994e-62, No Iterations 2
DILUPBiCGStab:  Solving for ILambda_38_0, Initial residual = 2.0498378835e-16, Final residual = 1.52762415345e-62, No Iterations 2
DILUPBiCGStab:  Solving for ILambda_39_0, Initial residual = 1.69980454261e-16, Final residual = 4.21655644484e-63, No Iterations 2
DILUPBiCGStab:  Solving for ILambda_40_0, Initial residual = 1.70361161748e-16, Final residual = 1.24838924455e-62, No Iterations 21
DILUPBiCGStab:  Solving for ILambda_41_0, Initial residual = 1.89440045525e-16, Final residual = 4.01142951687e-61, No Iterations 25
DILUPBiCGStab:  Solving for ILambda_42_0, Initial residual = 1.7139994932e-16, Final residual = 4.54323450279e-62, No Iterations 28
DILUPBiCGStab:  Solving for ILambda_43_0, Initial residual = 1.74973161019e-16, Final residual = 9.34846211249e-61, No Iterations 27
DILUPBiCGStab:  Solving for ILambda_44_0, Initial residual = 2.44827546203e-16, Final residual = 4.59285283841e-61, No Iterations 28
DILUPBiCGStab:  Solving for ILambda_45_0, Initial residual = 2.15208503715e-16, Final residual = 1.23092440827e-62, No Iterations 28
DILUPBiCGStab:  Solving for ILambda_46_0, Initial residual = 1.99327562829e-16, Final residual = 8.74271389844e-61, No Iterations 25
DILUPBiCGStab:  Solving for ILambda_47_0, Initial residual = 1.95884879411e-16, Final residual = 2.8430631051e-61, No Iterations 20
DILUPBiCGStab:  Solving for ILambda_48_0, Initial residual = 1.89559696449e-16, Final residual = 5.77110606766e-63, No Iterations 7
DILUPBiCGStab:  Solving for ILambda_49_0, Initial residual = 1.87688791084e-16, Final residual = 1.8429510336e-64, No Iterations 8
DILUPBiCGStab:  Solving for ILambda_50_0, Initial residual = 2.05190458129e-16, Final residual = 1.81298205788e-62, No Iterations 7
DILUPBiCGStab:  Solving for ILambda_51_0, Initial residual = 1.50238051722e-16, Final residual = 1.12381046484e-61, No Iterations 8
DILUPBiCGStab:  Solving for ILambda_52_0, Initial residual = 1.5842870137e-16, Final residual = 1.3255557499e-62, No Iterations 9
DILUPBiCGStab:  Solving for ILambda_53_0, Initial residual = 1.55861645172e-16, Final residual = 1.7651390921e-63, No Iterations 8
DILUPBiCGStab:  Solving for ILambda_54_0, Initial residual = 1.76800556957e-16, Final residual = 1.36371444275e-62, No Iterations 8
DILUPBiCGStab:  Solving for ILambda_55_0, Initial residual = 1.70121859899e-16, Final residual = 4.88470518281e-63, No Iterations 8
DILUPBiCGStab:  Solving for ILambda_56_0, Initial residual = 1.86443333734e-16, Final residual = 6.31664752291e-63, No Iterations 20
DILUPBiCGStab:  Solving for ILambda_57_0, Initial residual = 1.94443629639e-16, Final residual = 4.77120065938e-61, No Iterations 24
DILUPBiCGStab:  Solving for ILambda_58_0, Initial residual = 2.28952043995e-16, Final residual = 1.66432565443e-61, No Iterations 28
DILUPBiCGStab:  Solving for ILambda_59_0, Initial residual = 2.21397719718e-16, Final residual = 9.87265177337e-61, No Iterations 29
DILUPBiCGStab:  Solving for ILambda_60_0, Initial residual = 1.77230212549e-16, Final residual = 2.19363542715e-61, No Iterations 30
DILUPBiCGStab:  Solving for ILambda_61_0, Initial residual = 2.07991377498e-16, Final residual = 1.9301010606e-61, No Iterations 29
DILUPBiCGStab:  Solving for ILambda_62_0, Initial residual = 1.8895056447e-16, Final residual = 2.46336043223e-61, No Iterations 26
DILUPBiCGStab:  Solving for ILambda_63_0, Initial residual = 1.65439157809e-16, Final residual = 5.5222070475e-61, No Iterations 20
DILUPBiCGStab:  Solving for ILambda_64_0, Initial residual = 1.78475669899e-16, Final residual = 5.05828182788e-62, No Iterations 7
DILUPBiCGStab:  Solving for ILambda_65_0, Initial residual = 1.92442195993e-16, Final residual = 2.52108778547e-63, No Iterations 8
DILUPBiCGStab:  Solving for ILambda_66_0, Initial residual = 1.51026660088e-16, Final residual = 9.81694585866e-61, No Iterations 8
[...]
DILUPBiCGStab:  Solving for ILambda_107_0, Initial residual = 4.16113283276e-17, Final residual = 1.34607118657e-61, No Iterations 27
DILUPBiCGStab:  Solving for ILambda_108_0, Initial residual = 4.88556479372e-17, Final residual = 1.99795843538e-61, No Iterations 28
DILUPBiCGStab:  Solving for ILambda_109_0, Initial residual = 5.43731871593e-17, Final residual = 1.22922983534e-61, No Iterations 28
DILUPBiCGStab:  Solving for ILambda_110_0, Initial residual = 5.02724236566e-17, Final residual = 1.24128592972e-62, No Iterations 25
DILUPBiCGStab:  Solving for ILambda_111_0, Initial residual = 3.99498120809e-17, Final residual = 5.87704638345e-61, No Iterations 20
DILUPBiCGStab:  Solving for ILambda_112_0, Initial residual = 4.01646398771e-17, Final residual = 1.07689579866e-63, No Iterations 2
DILUPBiCGStab:  Solving for ILambda_113_0, Initial residual = 4.45998821005e-17, Final residual = 2.91546430889e-63, No Iterations 2
DILUPBiCGStab:  Solving for ILambda_114_0, Initial residual = 4.20790546688e-17, Final residual = 2.14143452572e-63, No Iterations 2
DILUPBiCGStab:  Solving for ILambda_115_0, Initial residual = 3.61808079597e-17, Final residual = 3.67936117746e-64, No Iterations 2
DILUPBiCGStab:  Solving for ILambda_116_0, Initial residual = 4.79446693076e-17, Final residual = 2.57293193973e-63, No Iterations 2
DILUPBiCGStab:  Solving for ILambda_117_0, Initial residual = 4.0966844939e-17, Final residual = 2.35728827512e-63, No Iterations 2
DILUPBiCGStab:  Solving for ILambda_118_0, Initial residual = 4.03522742814e-17, Final residual = 4.41202584642e-64, No Iterations 2
DILUPBiCGStab:  Solving for ILambda_119_0, Initial residual = 3.98899866186e-17, Final residual = 5.5265071253e-64, No Iterations 2
DILUPBiCGStab:  Solving for ILambda_120_0, Initial residual = 4.25386229924e-17, Final residual = 7.55459554405e-63, No Iterations 20
DILUPBiCGStab:  Solving for ILambda_121_0, Initial residual = 5.35437887055e-17, Final residual = 1.93530472438e-62, No Iterations 25
DILUPBiCGStab:  Solving for ILambda_122_0, Initial residual = 4.31640710067e-17, Final residual = 2.95923262797e-61, No Iterations 27
DILUPBiCGStab:  Solving for ILambda_123_0, Initial residual = 4.9742152514e-17, Final residual = 5.3879010033e-61, No Iterations 29
DILUPBiCGStab:  Solving for ILambda_124_0, Initial residual = 4.27779248413e-17, Final residual = 1.00896078888e-61, No Iterations 28
DILUPBiCGStab:  Solving for ILambda_125_0, Initial residual = 3.84623335424e-17, Final residual = 9.0201336908e-62, No Iterations 26
DILUPBiCGStab:  Solving for ILambda_126_0, Initial residual = 4.36997808277e-17, Final residual = 1.21765199278e-61, No Iterations 25
DILUPBiCGStab:  Solving for ILambda_127_0, Initial residual = 4.07574558211e-17, Final residual = 3.64300785194e-62, No Iterations 20
min/max(T) = 1000, 1000
PIMPLE: iteration 10
Radiation solver iter: 0
DILUPBiCGStab:  Solving for ILambda_0_0, Initial residual = 4.11381633081e-17, Final residual = 3.15548716173e-63, No Iterations 2
DILUPBiCGStab:  Solving for ILambda_1_0, Initial residual = 3.99960408471e-17, Final residual = 9.29242112371e-64, No Iterations 2
DILUPBiCGStab:  Solving for ILambda_2_0, Initial residual = 3.97159489103e-17, Final residual = 1.53311626141e-63, No Iterations 2
DILUPBiCGStab:  Solving for ILambda_3_0, Initial residual = 4.52661202027e-17, Final residual = 9.26534695388e-64, No Iterations 2
DILUPBiCGStab:  Solving for ILambda_4_0, Initial residual = 4.3196703077e-17, Final residual = 6.27831131521e-64, No Iterations 2
DILUPBiCGStab:  Solving for ILambda_5_0, Initial residual = 5.12133150173e-17, Final residual = 2.33918890008e-63, No Iterations 2
DILUPBiCGStab:  Solving for ILambda_6_0, Initial residual = 4.66720185654e-17, Final residual = 3.68226443051e-63, No Iterations 2
DILUPBiCGStab:  Solving for ILambda_7_0, Initial residual = 4.35311817977e-17, Final residual = 1.06433121218e-63, No Iterations 2
DILUPBiCGStab:  Solving for ILambda_8_0, Initial residual = 4.38085543954e-17, Final residual = 7.96865950486e-62, No Iterations 20
DILUPBiCGStab:  Solving for ILambda_9_0, Initial residual = 4.49724315699e-17, Final residual = 4.06079767224e-61, No Iterations 26
DILUPBiCGStab:  Solving for ILambda_10_0, Initial residual = 4.0798245909e-17, Final residual = 4.13384704888e-61, No Iterations 26
DILUPBiCGStab:  Solving for ILambda_11_0, Initial residual = 4.17472952873e-17, Final residual = 4.72555949631e-61, No Iterations 27
DILUPBiCGStab:  Solving for ILambda_12_0, Initial residual = 3.96425267521e-17, Final residual = 3.41944780205e-61, No Iterations 26
DILUPBiCGStab:  Solving for ILambda_13_0, Initial residual = 5.00304024684e-17, Final residual = 3.78952947279e-61, No Iterations 25
DILUPBiCGStab:  Solving for ILambda_14_0, Initial residual = 5.03920745811e-17, Final residual = 9.88214076865e-61, No Iterations 23
DILUPBiCGStab:  Solving for ILambda_15_0, Initial residual = 4.20600192944e-17, Final residual = 2.19172026378e-64, No Iterations 20
DILUPBiCGStab:  Solving for ILambda_16_0, Initial residual = 4.26582739168e-17, Final residual = 1.70942535034e-61, No Iterations 8
DILUPBiCGStab:  Solving for ILambda_17_0, Initial residual = 4.39635567294e-17, Final residual = 1.86013978547e-61, No Iterations 7
DILUPBiCGStab:  Solving for ILambda_18_0, Initial residual = 3.95500692195e-17, Final residual = 2.64253611423e-61, No Iterations 7
DILUPBiCGStab:  Solving for ILambda_19_0, Initial residual = 4.1094653881e-17, Final residual = 9.6083008371e-61, No Iterations 8
DILUPBiCGStab:  Solving for ILambda_20_0, Initial residual = 4.13176396948e-17, Final residual = 2.90081637016e-61, No Iterations 8
DILUPBiCGStab:  Solving for ILambda_21_0, Initial residual = 3.75132841641e-17, Final residual = 1.86326511924e-61, No Iterations 7
DILUPBiCGStab:  Solving for ILambda_22_0, Initial residual = 4.44856698544e-17, Final residual = 1.99907103553e-63, No Iterations 8
DILUPBiCGStab:  Solving for ILambda_23_0, Initial residual = 4.03223615503e-17, Final residual = 4.66327834987e-61, No Iterations 8
DILUPBiCGStab:  Solving for ILambda_24_0, Initial residual = 3.96071753426e-17, Final residual = 1.13918476354e-61, No Iterations 19
DILUPBiCGStab:  Solving for ILambda_25_0, Initial residual = 4.39200473023e-17, Final residual = 8.78868795513e-62, No Iterations 23
DILUPBiCGStab:  Solving for ILambda_26_0, Initial residual = 4.36154813127e-17, Final residual = 2.05836167702e-61, No Iterations 27
DILUPBiCGStab:  Solving for ILambda_27_0, Initial residual = 4.85130111989e-17, Final residual = 3.1929049382e-61, No Iterations 26
DILUPBiCGStab:  Solving for ILambda_28_0, Initial residual = 4.18125594279e-17, Final residual = 7.02512253523e-61, No Iterations 27
DILUPBiCGStab:  Solving for ILambda_29_0, Initial residual = 4.26637125952e-17, Final residual = 5.23477757349e-61, No Iterations 28
DILUPBiCGStab:  Solving for ILambda_30_0, Initial residual = 4.34441629436e-17, Final residual = 7.74749174099e-62, No Iterations 25
DILUPBiCGStab:  Solving for ILambda_31_0, Initial residual = 4.21579155054e-17, Final residual = 4.92124079533e-61, No Iterations 19
DILUPBiCGStab:  Solving for ILambda_32_0, Initial residual = 1.70703798486e-16, Final residual = 9.95561817429e-63, No Iterations 2
DILUPBiCGStab:  Solving for ILambda_33_0, Initial residual = 2.054243213e-16, Final residual = 5.20727883231e-63, No Iterations 2
DILUPBiCGStab:  Solving for ILambda_34_0, Initial residual = 1.69942383512e-16, Final residual = 7.2036411862e-63, No Iterations 2
DILUPBiCGStab:  Solving for ILambda_35_0, Initial residual = 1.93116592113e-16, Final residual = 6.97804908114e-63, No Iterations 2
DILUPBiCGStab:  Solving for ILambda_36_0, Initial residual = 1.93638705238e-16, Final residual = 2.88387077224e-62, No Iterations 2
DILUPBiCGStab:  Solving for ILambda_37_0, Initial residual = 1.91267441462e-16, Final residual = 1.82307989612e-62, No Iterations 2
DILUPBiCGStab:  Solving for ILambda_38_0, Initial residual = 1.79791830069e-16, Final residual = 3.13930711914e-63, No Iterations 2
DILUPBiCGStab:  Solving for ILambda_39_0, Initial residual = 1.73080500941e-16, Final residual = 4.74941638523e-63, No Iterations 2
DILUPBiCGStab:  Solving for ILambda_40_0, Initial residual = 1.66907600973e-16, Final residual = 7.17561201487e-61, No Iterations 21
DILUPBiCGStab:  Solving for ILambda_41_0, Initial residual = 1.61387342412e-16, Final residual = 7.62491546006e-62, No Iterations 24
DILUPBiCGStab:  Solving for ILambda_42_0, Initial residual = 2.0178584546e-16, Final residual = 2.46740340786e-61, No Iterations 27
DILUPBiCGStab:  Solving for ILambda_43_0, Initial residual = 1.48769608558e-16, Final residual = 2.27664186569e-61, No Iterations 28
DILUPBiCGStab:  Solving for ILambda_44_0, Initial residual = 1.90462517061e-16, Final residual = 1.5882215041e-61, No Iterations 28
DILUPBiCGStab:  Solving for ILambda_45_0, Initial residual = 2.13141805929e-16, Final residual = 2.50172261e-61, No Iterations 26
DILUPBiCGStab:  Solving for ILambda_46_0, Initial residual = 1.94057483474e-16, Final residual = 9.59605658145e-62, No Iterations 24
DILUPBiCGStab:  Solving for ILambda_47_0, Initial residual = 1.92442195993e-16, Final residual = 4.94554500265e-61, No Iterations 20
DILUPBiCGStab:  Solving for ILambda_48_0, Initial residual = 1.91990785687e-16, Final residual = 8.6473408385e-63, No Iterations 8
DILUPBiCGStab:  Solving for ILambda_49_0, Initial residual = 1.83838206787e-16, Final residual = 3.27322282858e-61, No Iterations 8
DILUPBiCGStab:  Solving for ILambda_50_0, Initial residual = 1.65863374723e-16, Final residual = 9.14841442442e-61, No Iterations 8
DILUPBiCGStab:  Solving for ILambda_51_0, Initial residual = 1.43113383037e-16, Final residual = 1.06635181005e-61, No Iterations 7
DILUPBiCGStab:  Solving for ILambda_52_0, Initial residual = 1.64824587152e-16, Final residual = 5.45590913423e-61, No Iterations 8
DILUPBiCGStab:  Solving for ILambda_53_0, Initial residual = 1.63252809098e-16, Final residual = 6.56935886325e-61, No Iterations 7
DILUPBiCGStab:  Solving for ILambda_54_0, Initial residual = 1.76931085238e-16, Final residual = 5.99171492534e-63, No Iterations 9
DILUPBiCGStab:  Solving for ILambda_55_0, Initial residual = 1.74848071416e-16, Final residual = 2.7948047735e-62, No Iterations 8
DILUPBiCGStab:  Solving for ILambda_56_0, Initial residual = 1.9205061115e-16, Final residual = 1.66965277421e-61, No Iterations 20
DILUPBiCGStab:  Solving for ILambda_57_0, Initial residual = 2.15589211202e-16, Final residual = 1.03283156993e-62, No Iterations 25
DILUPBiCGStab:  Solving for ILambda_58_0, Initial residual = 2.35799340083e-16, Final residual = 1.9559640782e-61, No Iterations 26
DILUPBiCGStab:  Solving for ILambda_59_0, Initial residual = 1.33127969521e-16, Final residual = 6.59102970545e-63, No Iterations 29
DILUPBiCGStab:  Solving for ILambda_60_0, Initial residual = 1.49177509437e-16, Final residual = 4.45952265232e-61, No Iterations 27
DILUPBiCGStab:  Solving for ILambda_61_0, Initial residual = 1.65988464326e-16, Final residual = 1.02604635399e-61, No Iterations 29
DILUPBiCGStab:  Solving for ILambda_62_0, Initial residual = 1.82337131553e-16, Final residual = 2.01591636922e-61, No Iterations 24
DILUPBiCGStab:  Solving for ILambda_63_0, Initial residual = 1.75430010003e-16, Final residual = 2.22847244072e-61, No Iterations 20
DILUPBiCGStab:  Solving for ILambda_64_0, Initial residual = 1.79557966898e-16, Final residual = 8.71272720238e-62, No Iterations 8
DILUPBiCGStab:  Solving for ILambda_65_0, Initial residual = 1.81309221338e-16, Final residual = 3.5275147711e-62, No Iterations 8
DILUPBiCGStab:  Solving for ILambda_66_0, Initial residual = 1.67669015947e-16, Final residual = 3.62600575149e-62, No Iterations 8
DILUPBiCGStab:  Solving for ILambda_67_0, Initial residual = 1.67652699912e-16, Final residual = 5.09789259476e-64, No Iterations 9
DILUPBiCGStab:  Solving for ILambda_68_0, Initial residual = 1.41557921018e-16, Final residual = 3.04211833298e-61, No Iterations 8
DILUPBiCGStab:  Solving for ILambda_69_0, Initial residual = 1.82092391026e-16, Final residual = 2.48945434282e-61, No Iterations 8
DILUPBiCGStab:  Solving for ILambda_70_0, Initial residual = 1.891191635e-16, Final residual = 7.00356531672e-61, No Iterations 8
DILUPBiCGStab:  Solving for ILambda_71_0, Initial residual = 1.82032565563e-16, Final residual = 3.79082244216e-62, No Iterations 7
DILUPBiCGStab:  Solving for ILambda_72_0, Initial residual = 1.53658980426e-16, Final residual = 3.75862107326e-61, No Iterations 21
DILUPBiCGStab:  Solving for ILambda_73_0, Initial residual = 1.89396536097e-16, Final residual = 5.67935180459e-61, No Iterations 26
DILUPBiCGStab:  Solving for ILambda_74_0, Initial residual = 1.70736430557e-16, Final residual = 7.5101099345e-61, No Iterations 27
DILUPBiCGStab:  Solving for ILambda_75_0, Initial residual = 1.48911014196e-16, Final residual = 4.01887451787e-61, No Iterations 26
DILUPBiCGStab:  Solving for ILambda_76_0, Initial residual = 1.84566989691e-16, Final residual = 2.86061319207e-61, No Iterations 29
DILUPBiCGStab:  Solving for ILambda_77_0, Initial residual = 2.29175029809e-16, Final residual = 3.09377758615e-61, No Iterations 29
DILUPBiCGStab:  Solving for ILambda_78_0, Initial residual = 1.80422716761e-16, Final residual = 2.82706463733e-62, No Iterations 26
DILUPBiCGStab:  Solving for ILambda_79_0, Initial residual = 1.98897907237e-16, Final residual = 5.04867651133e-62, No Iterations 21
DILUPBiCGStab:  Solving for ILambda_80_0, Initial residual = 1.8858073434e-16, Final residual = 1.67096062856e-62, No Iterations 2
DILUPBiCGStab:  Solving for ILambda_81_0, Initial residual = 2.00105293839e-16, Final residual = 4.23433653302e-63, No Iterations 2
DILUPBiCGStab:  Solving for ILambda_82_0, Initial residual = 1.95107148402e-16, Final residual = 4.42368040159e-63, No Iterations 2
DILUPBiCGStab:  Solving for ILambda_83_0, Initial residual = 1.37272242451e-16, Final residual = 1.72586466783e-63, No Iterations 2
DILUPBiCGStab:  Solving for ILambda_84_0, Initial residual = 1.62839469541e-16, Final residual = 1.34778314589e-62, No Iterations 2
DILUPBiCGStab:  Solving for ILambda_85_0, Initial residual = 1.54295305797e-16, Final residual = 5.36250478733e-63, No Iterations 2
DILUPBiCGStab:  Solving for ILambda_86_0, Initial residual = 1.87781248617e-16, Final residual = 7.71472675923e-63, No Iterations 2
DILUPBiCGStab:  Solving for ILambda_87_0, Initial residual = 1.76561255108e-16, Final residual = 5.15553846677e-63, No Iterations 2
DILUPBiCGStab:  Solving for ILambda_88_0, Initial residual = 2.03205340518e-16, Final residual = 3.91122836967e-61, No Iterations 20
DILUPBiCGStab:  Solving for ILambda_89_0, Initial residual = 1.72188557686e-16, Final residual = 1.98074629857e-61, No Iterations 24
DILUPBiCGStab:  Solving for ILambda_90_0, Initial residual = 2.49716918071e-16, Final residual = 2.249990792e-61, No Iterations 27
DILUPBiCGStab:  Solving for ILambda_91_0, Initial residual = 1.35472039905e-16, Final residual = 3.60825205613e-61, No Iterations 28
DILUPBiCGStab:  Solving for ILambda_92_0, Initial residual = 1.3326393648e-16, Final residual = 3.12984998912e-61, No Iterations 29
DILUPBiCGStab:  Solving for ILambda_93_0, Initial residual = 2.20532969855e-16, Final residual = 3.34931033314e-61, No Iterations 29
DILUPBiCGStab:  Solving for ILambda_94_0, Initial residual = 1.89907771866e-16, Final residual = 2.70981482839e-61, No Iterations 25
DILUPBiCGStab:  Solving for ILambda_95_0, Initial residual = 1.89739172836e-16, Final residual = 1.94588086329e-61, No Iterations 20
DILUPBiCGStab:  Solving for ILambda_96_0, Initial residual = 4.12306208407e-17, Final residual = 2.1139361191e-62, No Iterations 9
DILUPBiCGStab:  Solving for ILambda_97_0, Initial residual = 3.96941941967e-17, Final residual = 1.82545239852e-63, No Iterations 8
DILUPBiCGStab:  Solving for ILambda_98_0, Initial residual = 3.80163619148e-17, Final residual = 1.02929111752e-62, No Iterations 9
DILUPBiCGStab:  Solving for ILambda_99_0, Initial residual = 4.3126000258e-17, Final residual = 3.39655919669e-61, No Iterations 9
DILUPBiCGStab:  Solving for ILambda_100_0, Initial residual = 4.3732412898e-17, Final residual = 2.7450254444e-61, No Iterations 8
DILUPBiCGStab:  Solving for ILambda_101_0, Initial residual = 5.14825295974e-17, Final residual = 1.65808685834e-62, No Iterations 8
DILUPBiCGStab:  Solving for ILambda_102_0, Initial residual = 4.52634008635e-17, Final residual = 1.48200714601e-61, No Iterations 8
DILUPBiCGStab:  Solving for ILambda_103_0, Initial residual = 4.20790546688e-17, Final residual = 1.97356158576e-63, No Iterations 8
DILUPBiCGStab:  Solving for ILambda_104_0, Initial residual = 3.98546352091e-17, Final residual = 8.99681543533e-62, No Iterations 19
DILUPBiCGStab:  Solving for ILambda_105_0, Initial residual = 4.02815714624e-17, Final residual = 5.40568072838e-61, No Iterations 24
DILUPBiCGStab:  Solving for ILambda_106_0, Initial residual = 4.5891568217e-17, Final residual = 1.18369806666e-61, No Iterations 26
DILUPBiCGStab:  Solving for ILambda_107_0, Initial residual = 4.35284624585e-17, Final residual = 1.70125664589e-61, No Iterations 27
DILUPBiCGStab:  Solving for ILambda_108_0, Initial residual = 5.36117721853e-17, Final residual = 4.99843966508e-61, No Iterations 26
DILUPBiCGStab:  Solving for ILambda_109_0, Initial residual = 5.01881241416e-17, Final residual = 1.61392254354e-61, No Iterations 28
DILUPBiCGStab:  Solving for ILambda_110_0, Initial residual = 4.82601126539e-17, Final residual = 5.76469713706e-63, No Iterations 25
DILUPBiCGStab:  Solving for ILambda_111_0, Initial residual = 4.25576583667e-17, Final residual = 2.80996620799e-61, No Iterations 19
DILUPBiCGStab:  Solving for ILambda_112_0, Initial residual = 3.8921901866e-17, Final residual = 6.43838716791e-63, No Iterations 2
DILUPBiCGStab:  Solving for ILambda_113_0, Initial residual = 4.15814155965e-17, Final residual = 1.12278170664e-63, No Iterations 2
DILUPBiCGStab:  Solving for ILambda_114_0, Initial residual = 4.31341582756e-17, Final residual = 1.56193839193e-63, No Iterations 2
DILUPBiCGStab:  Solving for ILambda_115_0, Initial residual = 3.56641335131e-17, Final residual = 5.15862965504e-64, No Iterations 2
DILUPBiCGStab:  Solving for ILambda_116_0, Initial residual = 4.78603697926e-17, Final residual = 1.97014267533e-63, No Iterations 2
DILUPBiCGStab:  Solving for ILambda_117_0, Initial residual = 4.54102451799e-17, Final residual = 1.34957942124e-63, No Iterations 2
DILUPBiCGStab:  Solving for ILambda_118_0, Initial residual = 4.16113283276e-17, Final residual = 1.18393399406e-63, No Iterations 2
DILUPBiCGStab:  Solving for ILambda_119_0, Initial residual = 3.81251354825e-17, Final residual = 8.08592093563e-64, No Iterations 2
DILUPBiCGStab:  Solving for ILambda_120_0, Initial residual = 4.29981913159e-17, Final residual = 7.7051612007e-61, No Iterations 19
DILUPBiCGStab:  Solving for ILambda_121_0, Initial residual = 5.17381474815e-17, Final residual = 2.43523560802e-61, No Iterations 25
DILUPBiCGStab:  Solving for ILambda_122_0, Initial residual = 4.23047598218e-17, Final residual = 4.18919110514e-61, No Iterations 26
DILUPBiCGStab:  Solving for ILambda_123_0, Initial residual = 4.88148578493e-17, Final residual = 4.92689339639e-61, No Iterations 26
DILUPBiCGStab:  Solving for ILambda_124_0, Initial residual = 4.16684344507e-17, Final residual = 3.26056047002e-61, No Iterations 26
DILUPBiCGStab:  Solving for ILambda_125_0, Initial residual = 4.47739198088e-17, Final residual = 2.06301506814e-61, No Iterations 28
DILUPBiCGStab:  Solving for ILambda_126_0, Initial residual = 5.02452302647e-17, Final residual = 2.53046544923e-61, No Iterations 24
DILUPBiCGStab:  Solving for ILambda_127_0, Initial residual = 3.97513003198e-17, Final residual = 1.22671705505e-63, No Iterations 21
min/max(T) = 1000, 1000
ExecutionTime = 1.35 s  ClockTime = 1 s

writeObjects writeObjects1.writeObjects write:
    writing object a
    writing object qem
End

