/*---------------------------------------------------------------------------*\
| =========                 |                                                 |
| \\      /  F ield         | OpenFOAM: The Open Source CFD Toolbox           |
|  \\    /   O peration     | Version:  2306                                  |
|   \\  /    A nd           | Website:  www.openfoam.com                      |
|    \\/     M anipulation  |                                                 |
\*---------------------------------------------------------------------------*/
Build  : _fbf00d6b-20230626 OPENFOAM=2306 version=2306
Arch   : "LSB;label=32;scalar=64"
Exec   : fireRADFoam_MaCFP
Date   : Mar 12 2024
Time   : 19:30:59
Host   : pop-os
PID    : 173229
I/O    : uncollated
Case   : /home/rafay/Desktop/Study/Radiative_Heat_Transfer/Local_copy_RHT2324/01_Projects/02_Rafay/Case_1_q1D_SolidAngle/new_case3/th_4-ph_8/tau_1/res_2
nProcs : 1
trapFpe: Floating point exception trapping enabled (FOAM_SIGFPE).
fileModificationChecking : Monitoring run-time modified files using timeStampMaster (fileModificationSkew 5, maxFileModificationPolls 20)
allowSystemOperations : Allowing user-supplied system call operations

// * * * * * * * * * * * * * * * * * * * * * * * * * * * * * * * * * * * * * //
Create time

Create mesh for time = 0


PIMPLE: no residual control data found. Calculations will employ 10 corrector loops

Reading thermophysical properties

Selecting thermodynamics package 
{
    type            hePsiThermo;
    mixture         singleStepReactingMixture;
    transport       sutherland;
    thermo          janaf;
    energy          sensibleEnthalpy;
    equationOfState perfectGas;
    specie          specie;
}

Selecting chemistryReader foamChemistryReader
    elements not defined in "/home/rafay/Desktop/Study/Radiative_Heat_Transfer/Local_copy_RHT2324/01_Projects/02_Rafay/Case_1_q1D_SolidAngle/new_case3/th_4-ph_8/tau_1/res_2/constant/reactions"
Fuel heat of combustion :47168962.4726
stoichiometric air-fuel ratio :14.6914056505
stoichiometric oxygen-fuel ratio :3.42181919285
Maximum products mass concentrations:
    H2O: 0.0818486943001
    CO2: 0.199950099979
    N2: 0.718201205721
Creating component thermo properties:
    multi-component carrier - 6 species
    no liquid components
    no solid components
Creating field rho


Reading field U

Reading/calculating face flux field phi

Selecting radiationModel fvDOM
Selecting absorptionEmissionModel constantAbsorptionEmission
Selecting scatterModel none
Selecting sootModel none
fvDOM : Allocated 128 rays with average orientation:
	I0 : dAve : 	(0.00274192284156 0.0278392098 0.0490873852123) : omega : 	0.0575094490319 : d : 	(0.0375095356919 0.38084070704 0.923879532511)
	I1 : dAve : 	(0.00812039796756 0.0267693645798 0.0490873852123) : omega : 	0.0575094490319 : d : 	(0.111087136655 0.366205212247 0.923879532511)
	I2 : dAve : 	(0.0131868107536 0.0246707876912 0.0490873852123) : omega : 	0.0575094490319 : d : 	(0.180395721254 0.337496656517 0.923879532511)
	I3 : dAve : 	(0.0177464617977 0.0216241262672 0.0490873852123) : omega : 	0.0575094490319 : d : 	(0.242771799453 0.295818293547 0.923879532511)
	I4 : dAve : 	(0.0216241262672 0.0177464617977 0.0490873852123) : omega : 	0.0575094490319 : d : 	(0.295818293547 0.242771799453 0.923879532511)
	I5 : dAve : 	(0.0246707876912 0.0131868107536 0.0490873852123) : omega : 	0.0575094490319 : d : 	(0.337496656517 0.180395721254 0.923879532511)
	I6 : dAve : 	(0.0267693645798 0.00812039796756 0.0490873852123) : omega : 	0.0575094490319 : d : 	(0.366205212247 0.111087136655 0.923879532511)
	I7 : dAve : 	(0.0278392098 0.00274192284156 0.0490873852123) : omega : 	0.0575094490319 : d : 	(0.38084070704 0.0375095356919 0.923879532511)
	I8 : dAve : 	(0.0278392098 -0.00274192284156 0.0490873852123) : omega : 	0.0575094490319 : d : 	(0.38084070704 -0.0375095356919 0.923879532511)
	I9 : dAve : 	(0.0267693645798 -0.00812039796756 0.0490873852123) : omega : 	0.0575094490319 : d : 	(0.366205212247 -0.111087136655 0.923879532511)
	I10 : dAve : 	(0.0246707876912 -0.0131868107536 0.0490873852123) : omega : 	0.0575094490319 : d : 	(0.337496656517 -0.180395721254 0.923879532511)
	I11 : dAve : 	(0.0216241262672 -0.0177464617977 0.0490873852123) : omega : 	0.0575094490319 : d : 	(0.295818293547 -0.242771799453 0.923879532511)
	I12 : dAve : 	(0.0177464617977 -0.0216241262672 0.0490873852123) : omega : 	0.0575094490319 : d : 	(0.242771799453 -0.295818293547 0.923879532511)
	I13 : dAve : 	(0.0131868107536 -0.0246707876912 0.0490873852123) : omega : 	0.0575094490319 : d : 	(0.180395721254 -0.337496656517 0.923879532511)
	I14 : dAve : 	(0.00812039796756 -0.0267693645798 0.0490873852123) : omega : 	0.0575094490319 : d : 	(0.111087136655 -0.366205212247 0.923879532511)
	I15 : dAve : 	(0.00274192284156 -0.0278392098 0.0490873852123) : omega : 	0.0575094490319 : d : 	(0.0375095356919 -0.38084070704 0.923879532511)
	I16 : dAve : 	(-0.00274192284156 -0.0278392098 0.0490873852123) : omega : 	0.0575094490319 : d : 	(-0.0375095356919 -0.38084070704 0.923879532511)
	I17 : dAve : 	(-0.00812039796756 -0.0267693645798 0.0490873852123) : omega : 	0.0575094490319 : d : 	(-0.111087136655 -0.366205212247 0.923879532511)
	I18 : dAve : 	(-0.0131868107536 -0.0246707876912 0.0490873852123) : omega : 	0.0575094490319 : d : 	(-0.180395721254 -0.337496656517 0.923879532511)
	I19 : dAve : 	(-0.0177464617977 -0.0216241262672 0.0490873852123) : omega : 	0.0575094490319 : d : 	(-0.242771799453 -0.295818293547 0.923879532511)
	I20 : dAve : 	(-0.0216241262672 -0.0177464617977 0.0490873852123) : omega : 	0.0575094490319 : d : 	(-0.295818293547 -0.242771799453 0.923879532511)
	I21 : dAve : 	(-0.0246707876912 -0.0131868107536 0.0490873852123) : omega : 	0.0575094490319 : d : 	(-0.337496656517 -0.180395721254 0.923879532511)
	I22 : dAve : 	(-0.0267693645798 -0.00812039796756 0.0490873852123) : omega : 	0.0575094490319 : d : 	(-0.366205212247 -0.111087136655 0.923879532511)
	I23 : dAve : 	(-0.0278392098 -0.00274192284156 0.0490873852123) : omega : 	0.0575094490319 : d : 	(-0.38084070704 -0.0375095356919 0.923879532511)
	I24 : dAve : 	(-0.0278392098 0.00274192284156 0.0490873852123) : omega : 	0.0575094490319 : d : 	(-0.38084070704 0.0375095356919 0.923879532511)
	I25 : dAve : 	(-0.0267693645798 0.00812039796756 0.0490873852123) : omega : 	0.0575094490319 : d : 	(-0.366205212247 0.111087136655 0.923879532511)
	I26 : dAve : 	(-0.0246707876912 0.0131868107536 0.0490873852123) : omega : 	0.0575094490319 : d : 	(-0.337496656517 0.180395721254 0.923879532511)
	I27 : dAve : 	(-0.0216241262672 0.0177464617977 0.0490873852123) : omega : 	0.0575094490319 : d : 	(-0.295818293547 0.242771799453 0.923879532511)
	I28 : dAve : 	(-0.0177464617977 0.0216241262672 0.0490873852123) : omega : 	0.0575094490319 : d : 	(-0.242771799453 0.295818293547 0.923879532511)
	I29 : dAve : 	(-0.0131868107536 0.0246707876912 0.0490873852123) : omega : 	0.0575094490319 : d : 	(-0.180395721254 0.337496656517 0.923879532511)
	I30 : dAve : 	(-0.00812039796756 0.0267693645798 0.0490873852123) : omega : 	0.0575094490319 : d : 	(-0.111087136655 0.366205212247 0.923879532511)
	I31 : dAve : 	(-0.00274192284156 0.0278392098 0.0490873852123) : omega : 	0.0575094490319 : d : 	(-0.0375095356919 0.38084070704 0.923879532511)
	I32 : dAve : 	(0.0123492826399 0.125384370808 0.0490873852123) : omega : 	0.138840091817 : d : 	(0.0905560297858 0.91943080004 0.382683432365)
	I33 : dAve : 	(0.0365732719135 0.120565919754 0.0490873852123) : omega : 	0.138840091817 : d : 	(0.268188071917 0.884097590017 0.382683432365)
	I34 : dAve : 	(0.059391770858 0.111114188018 0.0490873852123) : omega : 	0.138840091817 : d : 	(0.435513796846 0.814789005418 0.382683432365)
	I35 : dAve : 	(0.0799278773557 0.0973924003507 0.0490873852123) : omega : 	0.138840091817 : d : 	(0.586102970801 0.714168536279 0.382683432365)
	I36 : dAve : 	(0.0973924003507 0.0799278773557 0.0490873852123) : omega : 	0.138840091817 : d : 	(0.714168536279 0.586102970801 0.382683432365)
	I37 : dAve : 	(0.111114188018 0.059391770858 0.0490873852123) : omega : 	0.138840091817 : d : 	(0.814789005418 0.435513796846 0.382683432365)
	I38 : dAve : 	(0.120565919754 0.0365732719135 0.0490873852123) : omega : 	0.138840091817 : d : 	(0.884097590017 0.268188071917 0.382683432365)
	I39 : dAve : 	(0.125384370808 0.0123492826399 0.0490873852123) : omega : 	0.138840091817 : d : 	(0.91943080004 0.0905560297858 0.382683432365)
	I40 : dAve : 	(0.125384370808 -0.0123492826399 0.0490873852123) : omega : 	0.138840091817 : d : 	(0.91943080004 -0.0905560297858 0.382683432365)
	I41 : dAve : 	(0.120565919754 -0.0365732719135 0.0490873852123) : omega : 	0.138840091817 : d : 	(0.884097590017 -0.268188071917 0.382683432365)
	I42 : dAve : 	(0.111114188018 -0.059391770858 0.0490873852123) : omega : 	0.138840091817 : d : 	(0.814789005418 -0.435513796846 0.382683432365)
	I43 : dAve : 	(0.0973924003507 -0.0799278773557 0.0490873852123) : omega : 	0.138840091817 : d : 	(0.714168536279 -0.586102970801 0.382683432365)
	I44 : dAve : 	(0.0799278773557 -0.0973924003507 0.0490873852123) : omega : 	0.138840091817 : d : 	(0.586102970801 -0.714168536279 0.382683432365)
	I45 : dAve : 	(0.059391770858 -0.111114188018 0.0490873852123) : omega : 	0.138840091817 : d : 	(0.435513796846 -0.814789005418 0.382683432365)
	I46 : dAve : 	(0.0365732719135 -0.120565919754 0.0490873852123) : omega : 	0.138840091817 : d : 	(0.268188071917 -0.884097590017 0.382683432365)
	I47 : dAve : 	(0.0123492826399 -0.125384370808 0.0490873852123) : omega : 	0.138840091817 : d : 	(0.0905560297858 -0.91943080004 0.382683432365)
	I48 : dAve : 	(-0.0123492826399 -0.125384370808 0.0490873852123) : omega : 	0.138840091817 : d : 	(-0.0905560297858 -0.91943080004 0.382683432365)
	I49 : dAve : 	(-0.0365732719135 -0.120565919754 0.0490873852123) : omega : 	0.138840091817 : d : 	(-0.268188071917 -0.884097590017 0.382683432365)
	I50 : dAve : 	(-0.059391770858 -0.111114188018 0.0490873852123) : omega : 	0.138840091817 : d : 	(-0.435513796846 -0.814789005418 0.382683432365)
	I51 : dAve : 	(-0.0799278773557 -0.0973924003507 0.0490873852123) : omega : 	0.138840091817 : d : 	(-0.586102970801 -0.714168536279 0.382683432365)
	I52 : dAve : 	(-0.0973924003507 -0.0799278773557 0.0490873852123) : omega : 	0.138840091817 : d : 	(-0.714168536279 -0.586102970801 0.382683432365)
	I53 : dAve : 	(-0.111114188018 -0.059391770858 0.0490873852123) : omega : 	0.138840091817 : d : 	(-0.814789005418 -0.435513796846 0.382683432365)
	I54 : dAve : 	(-0.120565919754 -0.0365732719135 0.0490873852123) : omega : 	0.138840091817 : d : 	(-0.884097590017 -0.268188071917 0.382683432365)
	I55 : dAve : 	(-0.125384370808 -0.0123492826399 0.0490873852123) : omega : 	0.138840091817 : d : 	(-0.91943080004 -0.0905560297858 0.382683432365)
	I56 : dAve : 	(-0.125384370808 0.0123492826399 0.0490873852123) : omega : 	0.138840091817 : d : 	(-0.91943080004 0.0905560297858 0.382683432365)
	I57 : dAve : 	(-0.120565919754 0.0365732719135 0.0490873852123) : omega : 	0.138840091817 : d : 	(-0.884097590017 0.268188071917 0.382683432365)
	I58 : dAve : 	(-0.111114188018 0.059391770858 0.0490873852123) : omega : 	0.138840091817 : d : 	(-0.814789005418 0.435513796846 0.382683432365)
	I59 : dAve : 	(-0.0973924003507 0.0799278773557 0.0490873852123) : omega : 	0.138840091817 : d : 	(-0.714168536279 0.586102970801 0.382683432365)
	I60 : dAve : 	(-0.0799278773557 0.0973924003507 0.0490873852123) : omega : 	0.138840091817 : d : 	(-0.586102970801 0.714168536279 0.382683432365)
	I61 : dAve : 	(-0.059391770858 0.111114188018 0.0490873852123) : omega : 	0.138840091817 : d : 	(-0.435513796846 0.814789005418 0.382683432365)
	I62 : dAve : 	(-0.0365732719135 0.120565919754 0.0490873852123) : omega : 	0.138840091817 : d : 	(-0.268188071917 0.884097590017 0.382683432365)
	I63 : dAve : 	(-0.0123492826399 0.125384370808 0.0490873852123) : omega : 	0.138840091817 : d : 	(-0.0905560297858 0.91943080004 0.382683432365)
	I64 : dAve : 	(0.0123492826399 0.125384370808 -0.0490873852123) : omega : 	0.138840091817 : d : 	(0.0905560297858 0.91943080004 -0.382683432365)
	I65 : dAve : 	(0.0365732719135 0.120565919754 -0.0490873852123) : omega : 	0.138840091817 : d : 	(0.268188071917 0.884097590017 -0.382683432365)
	I66 : dAve : 	(0.059391770858 0.111114188018 -0.0490873852123) : omega : 	0.138840091817 : d : 	(0.435513796846 0.814789005418 -0.382683432365)
	I67 : dAve : 	(0.0799278773557 0.0973924003507 -0.0490873852123) : omega : 	0.138840091817 : d : 	(0.586102970801 0.714168536279 -0.382683432365)
	I68 : dAve : 	(0.0973924003507 0.0799278773557 -0.0490873852123) : omega : 	0.138840091817 : d : 	(0.714168536279 0.586102970801 -0.382683432365)
	I69 : dAve : 	(0.111114188018 0.059391770858 -0.0490873852123) : omega : 	0.138840091817 : d : 	(0.814789005418 0.435513796846 -0.382683432365)
	I70 : dAve : 	(0.120565919754 0.0365732719135 -0.0490873852123) : omega : 	0.138840091817 : d : 	(0.884097590017 0.268188071917 -0.382683432365)
	I71 : dAve : 	(0.125384370808 0.0123492826399 -0.0490873852123) : omega : 	0.138840091817 : d : 	(0.91943080004 0.0905560297858 -0.382683432365)
	I72 : dAve : 	(0.125384370808 -0.0123492826399 -0.0490873852123) : omega : 	0.138840091817 : d : 	(0.91943080004 -0.0905560297858 -0.382683432365)
	I73 : dAve : 	(0.120565919754 -0.0365732719135 -0.0490873852123) : omega : 	0.138840091817 : d : 	(0.884097590017 -0.268188071917 -0.382683432365)
	I74 : dAve : 	(0.111114188018 -0.059391770858 -0.0490873852123) : omega : 	0.138840091817 : d : 	(0.814789005418 -0.435513796846 -0.382683432365)
	I75 : dAve : 	(0.0973924003507 -0.0799278773557 -0.0490873852123) : omega : 	0.138840091817 : d : 	(0.714168536279 -0.586102970801 -0.382683432365)
	I76 : dAve : 	(0.0799278773557 -0.0973924003507 -0.0490873852123) : omega : 	0.138840091817 : d : 	(0.586102970801 -0.714168536279 -0.382683432365)
	I77 : dAve : 	(0.059391770858 -0.111114188018 -0.0490873852123) : omega : 	0.138840091817 : d : 	(0.435513796846 -0.814789005418 -0.382683432365)
	I78 : dAve : 	(0.0365732719135 -0.120565919754 -0.0490873852123) : omega : 	0.138840091817 : d : 	(0.268188071917 -0.884097590017 -0.382683432365)
	I79 : dAve : 	(0.0123492826399 -0.125384370808 -0.0490873852123) : omega : 	0.138840091817 : d : 	(0.0905560297858 -0.91943080004 -0.382683432365)
	I80 : dAve : 	(-0.0123492826399 -0.125384370808 -0.0490873852123) : omega : 	0.138840091817 : d : 	(-0.0905560297858 -0.91943080004 -0.382683432365)
	I81 : dAve : 	(-0.0365732719135 -0.120565919754 -0.0490873852123) : omega : 	0.138840091817 : d : 	(-0.268188071917 -0.884097590017 -0.382683432365)
	I82 : dAve : 	(-0.059391770858 -0.111114188018 -0.0490873852123) : omega : 	0.138840091817 : d : 	(-0.435513796846 -0.814789005418 -0.382683432365)
	I83 : dAve : 	(-0.0799278773557 -0.0973924003507 -0.0490873852123) : omega : 	0.138840091817 : d : 	(-0.586102970801 -0.714168536279 -0.382683432365)
	I84 : dAve : 	(-0.0973924003507 -0.0799278773557 -0.0490873852123) : omega : 	0.138840091817 : d : 	(-0.714168536279 -0.586102970801 -0.382683432365)
	I85 : dAve : 	(-0.111114188018 -0.059391770858 -0.0490873852123) : omega : 	0.138840091817 : d : 	(-0.814789005418 -0.435513796846 -0.382683432365)
	I86 : dAve : 	(-0.120565919754 -0.0365732719135 -0.0490873852123) : omega : 	0.138840091817 : d : 	(-0.884097590017 -0.268188071917 -0.382683432365)
	I87 : dAve : 	(-0.125384370808 -0.0123492826399 -0.0490873852123) : omega : 	0.138840091817 : d : 	(-0.91943080004 -0.0905560297858 -0.382683432365)
	I88 : dAve : 	(-0.125384370808 0.0123492826399 -0.0490873852123) : omega : 	0.138840091817 : d : 	(-0.91943080004 0.0905560297858 -0.382683432365)
	I89 : dAve : 	(-0.120565919754 0.0365732719135 -0.0490873852123) : omega : 	0.138840091817 : d : 	(-0.884097590017 0.268188071917 -0.382683432365)
	I90 : dAve : 	(-0.111114188018 0.059391770858 -0.0490873852123) : omega : 	0.138840091817 : d : 	(-0.814789005418 0.435513796846 -0.382683432365)
	I91 : dAve : 	(-0.0973924003507 0.0799278773557 -0.0490873852123) : omega : 	0.138840091817 : d : 	(-0.714168536279 0.586102970801 -0.382683432365)
	I92 : dAve : 	(-0.0799278773557 0.0973924003507 -0.0490873852123) : omega : 	0.138840091817 : d : 	(-0.586102970801 0.714168536279 -0.382683432365)
	I93 : dAve : 	(-0.059391770858 0.111114188018 -0.0490873852123) : omega : 	0.138840091817 : d : 	(-0.435513796846 0.814789005418 -0.382683432365)
	I94 : dAve : 	(-0.0365732719135 0.120565919754 -0.0490873852123) : omega : 	0.138840091817 : d : 	(-0.268188071917 0.884097590017 -0.382683432365)
	I95 : dAve : 	(-0.0123492826399 0.125384370808 -0.0490873852123) : omega : 	0.138840091817 : d : 	(-0.0905560297858 0.91943080004 -0.382683432365)
	I96 : dAve : 	(0.00274192284156 0.0278392098 -0.0490873852123) : omega : 	0.0575094490319 : d : 	(0.0375095356919 0.38084070704 -0.923879532511)
	I97 : dAve : 	(0.00812039796756 0.0267693645798 -0.0490873852123) : omega : 	0.0575094490319 : d : 	(0.111087136655 0.366205212247 -0.923879532511)
	I98 : dAve : 	(0.0131868107536 0.0246707876912 -0.0490873852123) : omega : 	0.0575094490319 : d : 	(0.180395721254 0.337496656517 -0.923879532511)
	I99 : dAve : 	(0.0177464617977 0.0216241262672 -0.0490873852123) : omega : 	0.0575094490319 : d : 	(0.242771799453 0.295818293547 -0.923879532511)
	I100 : dAve : 	(0.0216241262672 0.0177464617977 -0.0490873852123) : omega : 	0.0575094490319 : d : 	(0.295818293547 0.242771799453 -0.923879532511)
	I101 : dAve : 	(0.0246707876912 0.0131868107536 -0.0490873852123) : omega : 	0.0575094490319 : d : 	(0.337496656517 0.180395721254 -0.923879532511)
	I102 : dAve : 	(0.0267693645798 0.00812039796756 -0.0490873852123) : omega : 	0.0575094490319 : d : 	(0.366205212247 0.111087136655 -0.923879532511)
	I103 : dAve : 	(0.0278392098 0.00274192284156 -0.0490873852123) : omega : 	0.0575094490319 : d : 	(0.38084070704 0.0375095356919 -0.923879532511)
	I104 : dAve : 	(0.0278392098 -0.00274192284156 -0.0490873852123) : omega : 	0.0575094490319 : d : 	(0.38084070704 -0.0375095356919 -0.923879532511)
	I105 : dAve : 	(0.0267693645798 -0.00812039796756 -0.0490873852123) : omega : 	0.0575094490319 : d : 	(0.366205212247 -0.111087136655 -0.923879532511)
	I106 : dAve : 	(0.0246707876912 -0.0131868107536 -0.0490873852123) : omega : 	0.0575094490319 : d : 	(0.337496656517 -0.180395721254 -0.923879532511)
	I107 : dAve : 	(0.0216241262672 -0.0177464617977 -0.0490873852123) : omega : 	0.0575094490319 : d : 	(0.295818293547 -0.242771799453 -0.923879532511)
	I108 : dAve : 	(0.0177464617977 -0.0216241262672 -0.0490873852123) : omega : 	0.0575094490319 : d : 	(0.242771799453 -0.295818293547 -0.923879532511)
	I109 : dAve : 	(0.0131868107536 -0.0246707876912 -0.0490873852123) : omega : 	0.0575094490319 : d : 	(0.180395721254 -0.337496656517 -0.923879532511)
	I110 : dAve : 	(0.00812039796756 -0.0267693645798 -0.0490873852123) : omega : 	0.0575094490319 : d : 	(0.111087136655 -0.366205212247 -0.923879532511)
	I111 : dAve : 	(0.00274192284156 -0.0278392098 -0.0490873852123) : omega : 	0.0575094490319 : d : 	(0.0375095356919 -0.38084070704 -0.923879532511)
	I112 : dAve : 	(-0.00274192284156 -0.0278392098 -0.0490873852123) : omega : 	0.0575094490319 : d : 	(-0.0375095356919 -0.38084070704 -0.923879532511)
	I113 : dAve : 	(-0.00812039796756 -0.0267693645798 -0.0490873852123) : omega : 	0.0575094490319 : d : 	(-0.111087136655 -0.366205212247 -0.923879532511)
	I114 : dAve : 	(-0.0131868107536 -0.0246707876912 -0.0490873852123) : omega : 	0.0575094490319 : d : 	(-0.180395721254 -0.337496656517 -0.923879532511)
	I115 : dAve : 	(-0.0177464617977 -0.0216241262672 -0.0490873852123) : omega : 	0.0575094490319 : d : 	(-0.242771799453 -0.295818293547 -0.923879532511)
	I116 : dAve : 	(-0.0216241262672 -0.0177464617977 -0.0490873852123) : omega : 	0.0575094490319 : d : 	(-0.295818293547 -0.242771799453 -0.923879532511)
	I117 : dAve : 	(-0.0246707876912 -0.0131868107536 -0.0490873852123) : omega : 	0.0575094490319 : d : 	(-0.337496656517 -0.180395721254 -0.923879532511)
	I118 : dAve : 	(-0.0267693645798 -0.00812039796756 -0.0490873852123) : omega : 	0.0575094490319 : d : 	(-0.366205212247 -0.111087136655 -0.923879532511)
	I119 : dAve : 	(-0.0278392098 -0.00274192284156 -0.0490873852123) : omega : 	0.0575094490319 : d : 	(-0.38084070704 -0.0375095356919 -0.923879532511)
	I120 : dAve : 	(-0.0278392098 0.00274192284156 -0.0490873852123) : omega : 	0.0575094490319 : d : 	(-0.38084070704 0.0375095356919 -0.923879532511)
	I121 : dAve : 	(-0.0267693645798 0.00812039796756 -0.0490873852123) : omega : 	0.0575094490319 : d : 	(-0.366205212247 0.111087136655 -0.923879532511)
	I122 : dAve : 	(-0.0246707876912 0.0131868107536 -0.0490873852123) : omega : 	0.0575094490319 : d : 	(-0.337496656517 0.180395721254 -0.923879532511)
	I123 : dAve : 	(-0.0216241262672 0.0177464617977 -0.0490873852123) : omega : 	0.0575094490319 : d : 	(-0.295818293547 0.242771799453 -0.923879532511)
	I124 : dAve : 	(-0.0177464617977 0.0216241262672 -0.0490873852123) : omega : 	0.0575094490319 : d : 	(-0.242771799453 0.295818293547 -0.923879532511)
	I125 : dAve : 	(-0.0131868107536 0.0246707876912 -0.0490873852123) : omega : 	0.0575094490319 : d : 	(-0.180395721254 0.337496656517 -0.923879532511)
	I126 : dAve : 	(-0.00812039796756 0.0267693645798 -0.0490873852123) : omega : 	0.0575094490319 : d : 	(-0.111087136655 0.366205212247 -0.923879532511)
	I127 : dAve : 	(-0.00274192284156 0.0278392098 -0.0490873852123) : omega : 	0.0575094490319 : d : 	(-0.0375095356919 0.38084070704 -0.923879532511)
Total omega : 12.5663706144

Courant Number mean: 0 max: 0

Starting time loop

Sampled set:
    data -> csv

Sampled set:
    data -> csv

Sampled surface:
    yNormal -> ensight
        sampledCuttingPlane: yNormal : plane:(0 1 0) (0 0 0) offsets:(0)

Sampled surface:
    zNormal -> ensight
        sampledCuttingPlane: zNormal : plane:(0 0 1) (0 0 0) offsets:(0)

Sampled surface:
    patchAll -> ensight
        sampledPatch: patchAll : patches:(".*WW.*")

deltaT = 1
Time = 1

PIMPLE: iteration 1
Radiation solver iter: 0
DILUPBiCGStab:  Solving for ILambda_0_0, Initial residual = 1, Final residual = 4.58995172754e-63, No Iterations 2
DILUPBiCGStab:  Solving for ILambda_1_0, Initial residual = 1, Final residual = 5.1351771369e-63, No Iterations 2
DILUPBiCGStab:  Solving for ILambda_2_0, Initial residual = 1, Final residual = 6.34765603939e-63, No Iterations 2
DILUPBiCGStab:  Solving for ILambda_3_0, Initial residual = 1, Final residual = 3.90555544214e-63, No Iterations 2
DILUPBiCGStab:  Solving for ILambda_4_0, Initial residual = 1, Final residual = 2.25645992935e-63, No Iterations 2
DILUPBiCGStab:  Solving for ILambda_5_0, Initial residual = 1, Final residual = 4.86126528478e-63, No Iterations 2
DILUPBiCGStab:  Solving for ILambda_6_0, Initial residual = 1, Final residual = 3.86217925468e-63, No Iterations 2
DILUPBiCGStab:  Solving for ILambda_7_0, Initial residual = 1, Final residual = 3.82117724283e-63, No Iterations 2
DILUPBiCGStab:  Solving for ILambda_8_0, Initial residual = 1, Final residual = 5.40303827471e-61, No Iterations 28
DILUPBiCGStab:  Solving for ILambda_9_0, Initial residual = 1, Final residual = 2.64561963277e-61, No Iterations 38
DILUPBiCGStab:  Solving for ILambda_10_0, Initial residual = 1, Final residual = 1.30999737162e-61, No Iterations 40
DILUPBiCGStab:  Solving for ILambda_11_0, Initial residual = 1, Final residual = 5.12796641144e-61, No Iterations 42
DILUPBiCGStab:  Solving for ILambda_12_0, Initial residual = 1, Final residual = 1.50242854308e-61, No Iterations 41
DILUPBiCGStab:  Solving for ILambda_13_0, Initial residual = 1, Final residual = 8.77476321743e-61, No Iterations 40
DILUPBiCGStab:  Solving for ILambda_14_0, Initial residual = 1, Final residual = 9.06491495667e-61, No Iterations 38
DILUPBiCGStab:  Solving for ILambda_15_0, Initial residual = 1, Final residual = 2.34005032621e-61, No Iterations 28
DILUPBiCGStab:  Solving for ILambda_16_0, Initial residual = 1, Final residual = 1.39417680262e-61, No Iterations 19
DILUPBiCGStab:  Solving for ILambda_17_0, Initial residual = 1, Final residual = 1.76622302646e-62, No Iterations 21
DILUPBiCGStab:  Solving for ILambda_18_0, Initial residual = 1, Final residual = 7.35945221191e-61, No Iterations 21
DILUPBiCGStab:  Solving for ILambda_19_0, Initial residual = 1, Final residual = 8.63259815671e-61, No Iterations 20
DILUPBiCGStab:  Solving for ILambda_20_0, Initial residual = 1, Final residual = 3.5583318265e-61, No Iterations 20
DILUPBiCGStab:  Solving for ILambda_21_0, Initial residual = 1, Final residual = 5.26807165909e-61, No Iterations 20
DILUPBiCGStab:  Solving for ILambda_22_0, Initial residual = 1, Final residual = 2.90111514054e-61, No Iterations 20
DILUPBiCGStab:  Solving for ILambda_23_0, Initial residual = 1, Final residual = 3.01963014701e-62, No Iterations 20
DILUPBiCGStab:  Solving for ILambda_24_0, Initial residual = 1, Final residual = 1.82957589197e-61, No Iterations 28
DILUPBiCGStab:  Solving for ILambda_25_0, Initial residual = 1, Final residual = 7.82983080321e-61, No Iterations 38
DILUPBiCGStab:  Solving for ILambda_26_0, Initial residual = 1, Final residual = 3.011552838e-61, No Iterations 40
DILUPBiCGStab:  Solving for ILambda_27_0, Initial residual = 1, Final residual = 4.05214475569e-61, No Iterations 41
DILUPBiCGStab:  Solving for ILambda_28_0, Initial residual = 1, Final residual = 9.29548851758e-61, No Iterations 42
DILUPBiCGStab:  Solving for ILambda_29_0, Initial residual = 1, Final residual = 8.36752983095e-62, No Iterations 40
DILUPBiCGStab:  Solving for ILambda_30_0, Initial residual = 1, Final residual = 6.15545239043e-61, No Iterations 38
DILUPBiCGStab:  Solving for ILambda_31_0, Initial residual = 1, Final residual = 2.25427610816e-62, No Iterations 29
DILUPBiCGStab:  Solving for ILambda_32_0, Initial residual = 1, Final residual = 2.65847279463e-62, No Iterations 2
DILUPBiCGStab:  Solving for ILambda_33_0, Initial residual = 1, Final residual = 7.17460853255e-63, No Iterations 2
DILUPBiCGStab:  Solving for ILambda_34_0, Initial residual = 1, Final residual = 2.11236686552e-62, No Iterations 2
DILUPBiCGStab:  Solving for ILambda_35_0, Initial residual = 1, Final residual = 2.03403900554e-62, No Iterations 2
DILUPBiCGStab:  Solving for ILambda_36_0, Initial residual = 1, Final residual = 1.01222272759e-62, No Iterations 2
DILUPBiCGStab:  Solving for ILambda_37_0, Initial residual = 1, Final residual = 1.21542124367e-62, No Iterations 2
DILUPBiCGStab:  Solving for ILambda_38_0, Initial residual = 1, Final residual = 1.11564833897e-62, No Iterations 2
DILUPBiCGStab:  Solving for ILambda_39_0, Initial residual = 1, Final residual = 6.44404202901e-63, No Iterations 2
DILUPBiCGStab:  Solving for ILambda_40_0, Initial residual = 1, Final residual = 4.19278619842e-61, No Iterations 32
DILUPBiCGStab:  Solving for ILambda_41_0, Initial residual = 1, Final residual = 4.69344948556e-61, No Iterations 42
DILUPBiCGStab:  Solving for ILambda_42_0, Initial residual = 1, Final residual = 2.97512044487e-61, No Iterations 46
DILUPBiCGStab:  Solving for ILambda_43_0, Initial residual = 1, Final residual = 6.69833239334e-62, No Iterations 48
DILUPBiCGStab:  Solving for ILambda_44_0, Initial residual = 1, Final residual = 2.71490677603e-61, No Iterations 48
DILUPBiCGStab:  Solving for ILambda_45_0, Initial residual = 1, Final residual = 5.22277433959e-61, No Iterations 46
DILUPBiCGStab:  Solving for ILambda_46_0, Initial residual = 1, Final residual = 3.76831256086e-61, No Iterations 42
DILUPBiCGStab:  Solving for ILambda_47_0, Initial residual = 1, Final residual = 4.03060685091e-62, No Iterations 32
DILUPBiCGStab:  Solving for ILambda_48_0, Initial residual = 1, Final residual = 3.23227847193e-61, No Iterations 25
DILUPBiCGStab:  Solving for ILambda_49_0, Initial residual = 1, Final residual = 1.72390212557e-61, No Iterations 23
DILUPBiCGStab:  Solving for ILambda_50_0, Initial residual = 1, Final residual = 7.4915766142e-61, No Iterations 22
DILUPBiCGStab:  Solving for ILambda_51_0, Initial residual = 1, Final residual = 9.72637128483e-63, No Iterations 24
DILUPBiCGStab:  Solving for ILambda_52_0, Initial residual = 1, Final residual = 5.51849240023e-62, No Iterations 24
DILUPBiCGStab:  Solving for ILambda_53_0, Initial residual = 1, Final residual = 1.82078433727e-61, No Iterations 27
DILUPBiCGStab:  Solving for ILambda_54_0, Initial residual = 1, Final residual = 3.98001973395e-62, No Iterations 23
DILUPBiCGStab:  Solving for ILambda_55_0, Initial residual = 1, Final residual = 1.55864281388e-61, No Iterations 24
DILUPBiCGStab:  Solving for ILambda_56_0, Initial residual = 1, Final residual = 5.050167993e-62, No Iterations 32
DILUPBiCGStab:  Solving for ILambda_57_0, Initial residual = 1, Final residual = 7.89523208076e-61, No Iterations 42
DILUPBiCGStab:  Solving for ILambda_58_0, Initial residual = 1, Final residual = 5.08303607664e-61, No Iterations 46
DILUPBiCGStab:  Solving for ILambda_59_0, Initial residual = 1, Final residual = 1.40568064394e-61, No Iterations 49
DILUPBiCGStab:  Solving for ILambda_60_0, Initial residual = 1, Final residual = 2.45410480489e-61, No Iterations 48
DILUPBiCGStab:  Solving for ILambda_61_0, Initial residual = 1, Final residual = 2.69202462734e-61, No Iterations 46
DILUPBiCGStab:  Solving for ILambda_62_0, Initial residual = 1, Final residual = 3.65934562138e-61, No Iterations 42
DILUPBiCGStab:  Solving for ILambda_63_0, Initial residual = 1, Final residual = 3.7426795463e-61, No Iterations 32
DILUPBiCGStab:  Solving for ILambda_64_0, Initial residual = 1, Final residual = 4.87747115689e-61, No Iterations 23
DILUPBiCGStab:  Solving for ILambda_65_0, Initial residual = 1, Final residual = 2.78476458534e-63, No Iterations 23
DILUPBiCGStab:  Solving for ILambda_66_0, Initial residual = 1, Final residual = 8.70088027981e-62, No Iterations 23
DILUPBiCGStab:  Solving for ILambda_67_0, Initial residual = 1, Final residual = 4.90056083284e-61, No Iterations 25
DILUPBiCGStab:  Solving for ILambda_68_0, Initial residual = 1, Final residual = 3.95470520771e-62, No Iterations 24
DILUPBiCGStab:  Solving for ILambda_69_0, Initial residual = 1, Final residual = 1.075794507e-62, No Iterations 22
DILUPBiCGStab:  Solving for ILambda_70_0, Initial residual = 1, Final residual = 2.7863599689e-62, No Iterations 24
DILUPBiCGStab:  Solving for ILambda_71_0, Initial residual = 1, Final residual = 7.28194693052e-61, No Iterations 24
DILUPBiCGStab:  Solving for ILambda_72_0, Initial residual = 1, Final residual = 2.25471344559e-61, No Iterations 32
DILUPBiCGStab:  Solving for ILambda_73_0, Initial residual = 1, Final residual = 7.89316891771e-61, No Iterations 42
DILUPBiCGStab:  Solving for ILambda_74_0, Initial residual = 1, Final residual = 6.13861196982e-61, No Iterations 46
DILUPBiCGStab:  Solving for ILambda_75_0, Initial residual = 1, Final residual = 6.53433040929e-61, No Iterations 50
DILUPBiCGStab:  Solving for ILambda_76_0, Initial residual = 1, Final residual = 1.81425126438e-61, No Iterations 48
DILUPBiCGStab:  Solving for ILambda_77_0, Initial residual = 1, Final residual = 2.06975616693e-61, No Iterations 46
DILUPBiCGStab:  Solving for ILambda_78_0, Initial residual = 1, Final residual = 1.7519610534e-61, No Iterations 42
DILUPBiCGStab:  Solving for ILambda_79_0, Initial residual = 1, Final residual = 7.22324643406e-61, No Iterations 32
DILUPBiCGStab:  Solving for ILambda_80_0, Initial residual = 1, Final residual = 1.45396155181e-62, No Iterations 2
DILUPBiCGStab:  Solving for ILambda_81_0, Initial residual = 1, Final residual = 1.10565766507e-62, No Iterations 2
DILUPBiCGStab:  Solving for ILambda_82_0, Initial residual = 1, Final residual = 1.09131131988e-62, No Iterations 2
DILUPBiCGStab:  Solving for ILambda_83_0, Initial residual = 1, Final residual = 9.59263295538e-63, No Iterations 2
DILUPBiCGStab:  Solving for ILambda_84_0, Initial residual = 1, Final residual = 1.0181589443e-62, No Iterations 2
DILUPBiCGStab:  Solving for ILambda_85_0, Initial residual = 1, Final residual = 1.21844312618e-62, No Iterations 2
DILUPBiCGStab:  Solving for ILambda_86_0, Initial residual = 1, Final residual = 1.3461286309e-62, No Iterations 2
DILUPBiCGStab:  Solving for ILambda_87_0, Initial residual = 1, Final residual = 1.23058333776e-62, No Iterations 2
DILUPBiCGStab:  Solving for ILambda_88_0, Initial residual = 1, Final residual = 8.54544671157e-61, No Iterations 32
DILUPBiCGStab:  Solving for ILambda_89_0, Initial residual = 1, Final residual = 5.73021091025e-62, No Iterations 43
DILUPBiCGStab:  Solving for ILambda_90_0, Initial residual = 1, Final residual = 7.40448588757e-61, No Iterations 46
DILUPBiCGStab:  Solving for ILambda_91_0, Initial residual = 1, Final residual = 9.8189740241e-61, No Iterations 48
DILUPBiCGStab:  Solving for ILambda_92_0, Initial residual = 1, Final residual = 1.28963658095e-61, No Iterations 50
DILUPBiCGStab:  Solving for ILambda_93_0, Initial residual = 1, Final residual = 6.55715349665e-61, No Iterations 47
DILUPBiCGStab:  Solving for ILambda_94_0, Initial residual = 1, Final residual = 3.11731409898e-61, No Iterations 43
DILUPBiCGStab:  Solving for ILambda_95_0, Initial residual = 1, Final residual = 9.89833246741e-61, No Iterations 31
DILUPBiCGStab:  Solving for ILambda_96_0, Initial residual = 1, Final residual = 1.06051911164e-61, No Iterations 24
DILUPBiCGStab:  Solving for ILambda_97_0, Initial residual = 1, Final residual = 1.1557250029e-61, No Iterations 22
DILUPBiCGStab:  Solving for ILambda_98_0, Initial residual = 1, Final residual = 9.37400321911e-62, No Iterations 23
DILUPBiCGStab:  Solving for ILambda_99_0, Initial residual = 1, Final residual = 1.00827510393e-61, No Iterations 22
DILUPBiCGStab:  Solving for ILambda_100_0, Initial residual = 1, Final residual = 2.43791520622e-62, No Iterations 24
DILUPBiCGStab:  Solving for ILambda_101_0, Initial residual = 1, Final residual = 9.66830531202e-62, No Iterations 21
DILUPBiCGStab:  Solving for ILambda_102_0, Initial residual = 1, Final residual = 6.40410275158e-62, No Iterations 23
DILUPBiCGStab:  Solving for ILambda_103_0, Initial residual = 1, Final residual = 9.85490230692e-62, No Iterations 22
DILUPBiCGStab:  Solving for ILambda_104_0, Initial residual = 1, Final residual = 2.45316114385e-61, No Iterations 29
DILUPBiCGStab:  Solving for ILambda_105_0, Initial residual = 1, Final residual = 3.11369336171e-61, No Iterations 38
DILUPBiCGStab:  Solving for ILambda_106_0, Initial residual = 1, Final residual = 7.39976436813e-61, No Iterations 41
DILUPBiCGStab:  Solving for ILambda_107_0, Initial residual = 1, Final residual = 2.89970023743e-61, No Iterations 43
DILUPBiCGStab:  Solving for ILambda_108_0, Initial residual = 1, Final residual = 9.45269786103e-62, No Iterations 43
DILUPBiCGStab:  Solving for ILambda_109_0, Initial residual = 1, Final residual = 4.57263280224e-61, No Iterations 40
DILUPBiCGStab:  Solving for ILambda_110_0, Initial residual = 1, Final residual = 7.61362099213e-62, No Iterations 38
DILUPBiCGStab:  Solving for ILambda_111_0, Initial residual = 1, Final residual = 4.53731080672e-61, No Iterations 28
DILUPBiCGStab:  Solving for ILambda_112_0, Initial residual = 1, Final residual = 8.83553562354e-63, No Iterations 2
DILUPBiCGStab:  Solving for ILambda_113_0, Initial residual = 1, Final residual = 5.34841766644e-63, No Iterations 2
DILUPBiCGStab:  Solving for ILambda_114_0, Initial residual = 1, Final residual = 4.47572476627e-63, No Iterations 2
DILUPBiCGStab:  Solving for ILambda_115_0, Initial residual = 1, Final residual = 2.33296599098e-63, No Iterations 2
DILUPBiCGStab:  Solving for ILambda_116_0, Initial residual = 1, Final residual = 5.03221187495e-63, No Iterations 2
DILUPBiCGStab:  Solving for ILambda_117_0, Initial residual = 1, Final residual = 4.5782337155e-63, No Iterations 2
DILUPBiCGStab:  Solving for ILambda_118_0, Initial residual = 1, Final residual = 1.64400430706e-62, No Iterations 2
DILUPBiCGStab:  Solving for ILambda_119_0, Initial residual = 1, Final residual = 4.12140653205e-63, No Iterations 2
DILUPBiCGStab:  Solving for ILambda_120_0, Initial residual = 1, Final residual = 3.67526120863e-61, No Iterations 28
DILUPBiCGStab:  Solving for ILambda_121_0, Initial residual = 1, Final residual = 1.09758254533e-61, No Iterations 38
DILUPBiCGStab:  Solving for ILambda_122_0, Initial residual = 1, Final residual = 4.74941124245e-61, No Iterations 40
DILUPBiCGStab:  Solving for ILambda_123_0, Initial residual = 1, Final residual = 3.21937276831e-61, No Iterations 42
DILUPBiCGStab:  Solving for ILambda_124_0, Initial residual = 1, Final residual = 1.5540078445e-61, No Iterations 43
DILUPBiCGStab:  Solving for ILambda_125_0, Initial residual = 1, Final residual = 9.37579292935e-61, No Iterations 41
DILUPBiCGStab:  Solving for ILambda_126_0, Initial residual = 1, Final residual = 2.17027543639e-61, No Iterations 38
DILUPBiCGStab:  Solving for ILambda_127_0, Initial residual = 1, Final residual = 6.43674126515e-61, No Iterations 30
Radiation solver iter: 1
DILUPBiCGStab:  Solving for ILambda_0_0, Initial residual = 1.25149428329e-16, Final residual = 5.40187864161e-64, No Iterations 2
DILUPBiCGStab:  Solving for ILambda_1_0, Initial residual = 1.27759993954e-16, Final residual = 5.9988394089e-64, No Iterations 2
DILUPBiCGStab:  Solving for ILambda_2_0, Initial residual = 1.20912697867e-16, Final residual = 5.10541755996e-64, No Iterations 2
DILUPBiCGStab:  Solving for ILambda_3_0, Initial residual = 1.32570504986e-16, Final residual = 3.44955773331e-64, No Iterations 2
DILUPBiCGStab:  Solving for ILambda_4_0, Initial residual = 1.39434117109e-16, Final residual = 2.59858618553e-63, No Iterations 2
DILUPBiCGStab:  Solving for ILambda_5_0, Initial residual = 1.28692727297e-16, Final residual = 5.41980845011e-64, No Iterations 2
DILUPBiCGStab:  Solving for ILambda_6_0, Initial residual = 1.34732379645e-16, Final residual = 5.25455814955e-64, No Iterations 2
DILUPBiCGStab:  Solving for ILambda_7_0, Initial residual = 1.26816383254e-16, Final residual = 5.00830907792e-64, No Iterations 2
DILUPBiCGStab:  Solving for ILambda_8_0, Initial residual = 2.79439295448e-16, Final residual = 3.99301990338e-61, No Iterations 23
DILUPBiCGStab:  Solving for ILambda_9_0, Initial residual = 3.28422752327e-16, Final residual = 3.29426330429e-61, No Iterations 30
DILUPBiCGStab:  Solving for ILambda_10_0, Initial residual = 3.70452858891e-16, Final residual = 5.06803798988e-62, No Iterations 33
DILUPBiCGStab:  Solving for ILambda_11_0, Initial residual = 3.88520148487e-16, Final residual = 5.54411830606e-65, No Iterations 36
DILUPBiCGStab:  Solving for ILambda_12_0, Initial residual = 4.00509714988e-16, Final residual = 8.44094884212e-61, No Iterations 35
DILUPBiCGStab:  Solving for ILambda_13_0, Initial residual = 3.96803255669e-16, Final residual = 4.55091272715e-61, No Iterations 31
DILUPBiCGStab:  Solving for ILambda_14_0, Initial residual = 3.46375829678e-16, Final residual = 4.60591856752e-61, No Iterations 30
DILUPBiCGStab:  Solving for ILambda_15_0, Initial residual = 3.046638858e-16, Final residual = 3.60367779445e-61, No Iterations 23
DILUPBiCGStab:  Solving for ILambda_16_0, Initial residual = 2.59930756079e-16, Final residual = 9.84618818302e-62, No Iterations 13
DILUPBiCGStab:  Solving for ILambda_17_0, Initial residual = 2.82506710058e-16, Final residual = 4.27772638029e-61, No Iterations 13
DILUPBiCGStab:  Solving for ILambda_18_0, Initial residual = 2.91456055341e-16, Final residual = 5.46250553334e-61, No Iterations 13
DILUPBiCGStab:  Solving for ILambda_19_0, Initial residual = 3.00209608203e-16, Final residual = 6.55841514634e-61, No Iterations 12
DILUPBiCGStab:  Solving for ILambda_20_0, Initial residual = 2.88364166679e-16, Final residual = 1.80232578683e-62, No Iterations 12
DILUPBiCGStab:  Solving for ILambda_21_0, Initial residual = 2.91733427939e-16, Final residual = 3.02860016777e-61, No Iterations 15
DILUPBiCGStab:  Solving for ILambda_22_0, Initial residual = 2.80586856588e-16, Final residual = 6.77364225207e-62, No Iterations 13
DILUPBiCGStab:  Solving for ILambda_23_0, Initial residual = 2.54864627163e-16, Final residual = 1.11337019587e-61, No Iterations 13
DILUPBiCGStab:  Solving for ILambda_24_0, Initial residual = 3.22916090462e-16, Final residual = 8.03798499957e-62, No Iterations 23
DILUPBiCGStab:  Solving for ILambda_25_0, Initial residual = 3.63706178353e-16, Final residual = 3.25824849681e-61, No Iterations 29
DILUPBiCGStab:  Solving for ILambda_26_0, Initial residual = 3.89694903019e-16, Final residual = 1.76236392029e-62, No Iterations 34
DILUPBiCGStab:  Solving for ILambda_27_0, Initial residual = 4.11881991492e-16, Final residual = 3.00927607169e-61, No Iterations 34
DILUPBiCGStab:  Solving for ILambda_28_0, Initial residual = 3.98812847332e-16, Final residual = 1.58949749076e-61, No Iterations 34
DILUPBiCGStab:  Solving for ILambda_29_0, Initial residual = 3.71967530821e-16, Final residual = 4.11456953083e-61, No Iterations 33
DILUPBiCGStab:  Solving for ILambda_30_0, Initial residual = 3.23870578519e-16, Final residual = 9.04776630689e-61, No Iterations 29
DILUPBiCGStab:  Solving for ILambda_31_0, Initial residual = 2.71126275536e-16, Final residual = 1.39059775357e-61, No Iterations 22
DILUPBiCGStab:  Solving for ILambda_32_0, Initial residual = 4.44144231675e-16, Final residual = 3.22027907792e-63, No Iterations 2
DILUPBiCGStab:  Solving for ILambda_33_0, Initial residual = 4.61199927092e-16, Final residual = 2.33646083558e-63, No Iterations 2
DILUPBiCGStab:  Solving for ILambda_34_0, Initial residual = 4.45786712548e-16, Final residual = 3.39322101608e-63, No Iterations 2
DILUPBiCGStab:  Solving for ILambda_35_0, Initial residual = 4.59089719879e-16, Final residual = 1.83038289413e-63, No Iterations 2
DILUPBiCGStab:  Solving for ILambda_36_0, Initial residual = 4.70565331272e-16, Final residual = 1.73346505735e-63, No Iterations 2
DILUPBiCGStab:  Solving for ILambda_37_0, Initial residual = 4.91199677067e-16, Final residual = 3.37147732805e-63, No Iterations 2
DILUPBiCGStab:  Solving for ILambda_38_0, Initial residual = 5.20013795153e-16, Final residual = 2.78418569776e-63, No Iterations 2
DILUPBiCGStab:  Solving for ILambda_39_0, Initial residual = 4.626574929e-16, Final residual = 2.84451286689e-63, No Iterations 2
DILUPBiCGStab:  Solving for ILambda_40_0, Initial residual = 8.85656143012e-16, Final residual = 8.86617298263e-61, No Iterations 25
DILUPBiCGStab:  Solving for ILambda_41_0, Initial residual = 1.12860190649e-15, Final residual = 2.86921236348e-62, No Iterations 34
DILUPBiCGStab:  Solving for ILambda_42_0, Initial residual = 1.34023175983e-15, Final residual = 6.94817575346e-61, No Iterations 37
DILUPBiCGStab:  Solving for ILambda_43_0, Initial residual = 1.38302328137e-15, Final residual = 5.5450753635e-61, No Iterations 39
DILUPBiCGStab:  Solving for ILambda_44_0, Initial residual = 1.43986834785e-15, Final residual = 5.14264783039e-62, No Iterations 40
DILUPBiCGStab:  Solving for ILambda_45_0, Initial residual = 1.36088786034e-15, Final residual = 6.56703375339e-61, No Iterations 38
DILUPBiCGStab:  Solving for ILambda_46_0, Initial residual = 1.23771267226e-15, Final residual = 3.53844222597e-61, No Iterations 33
DILUPBiCGStab:  Solving for ILambda_47_0, Initial residual = 9.93309342975e-16, Final residual = 1.90147434711e-61, No Iterations 25
DILUPBiCGStab:  Solving for ILambda_48_0, Initial residual = 7.94177572568e-16, Final residual = 7.46379638035e-62, No Iterations 13
DILUPBiCGStab:  Solving for ILambda_49_0, Initial residual = 1.03480645906e-15, Final residual = 1.54715730388e-61, No Iterations 15
DILUPBiCGStab:  Solving for ILambda_50_0, Initial residual = 9.15873440122e-16, Final residual = 2.39176218059e-62, No Iterations 15
DILUPBiCGStab:  Solving for ILambda_51_0, Initial residual = 9.28132221203e-16, Final residual = 2.57935906914e-62, No Iterations 14
DILUPBiCGStab:  Solving for ILambda_52_0, Initial residual = 9.23759523781e-16, Final residual = 8.18124561212e-62, No Iterations 14
DILUPBiCGStab:  Solving for ILambda_53_0, Initial residual = 8.89408831098e-16, Final residual = 2.76259732741e-61, No Iterations 13
DILUPBiCGStab:  Solving for ILambda_54_0, Initial residual = 9.85260098965e-16, Final residual = 1.630114872e-62, No Iterations 15
DILUPBiCGStab:  Solving for ILambda_55_0, Initial residual = 7.42227316629e-16, Final residual = 8.60246150554e-61, No Iterations 13
DILUPBiCGStab:  Solving for ILambda_56_0, Initial residual = 9.88066457012e-16, Final residual = 6.64169381329e-62, No Iterations 26
DILUPBiCGStab:  Solving for ILambda_57_0, Initial residual = 1.26313305504e-15, Final residual = 2.48524175844e-61, No Iterations 33
DILUPBiCGStab:  Solving for ILambda_58_0, Initial residual = 1.34133037286e-15, Final residual = 1.52702362234e-61, No Iterations 37
DILUPBiCGStab:  Solving for ILambda_59_0, Initial residual = 1.43213454719e-15, Final residual = 3.72803237297e-61, No Iterations 38
DILUPBiCGStab:  Solving for ILambda_60_0, Initial residual = 1.38882091253e-15, Final residual = 8.76325332513e-62, No Iterations 39
DILUPBiCGStab:  Solving for ILambda_61_0, Initial residual = 1.32336097948e-15, Final residual = 2.85503903389e-61, No Iterations 37
DILUPBiCGStab:  Solving for ILambda_62_0, Initial residual = 1.14957345035e-15, Final residual = 5.02408683742e-61, No Iterations 34
DILUPBiCGStab:  Solving for ILambda_63_0, Initial residual = 8.83981030069e-16, Final residual = 2.9597089131e-61, No Iterations 25
DILUPBiCGStab:  Solving for ILambda_64_0, Initial residual = 6.51216472526e-16, Final residual = 2.97179891807e-61, No Iterations 14
DILUPBiCGStab:  Solving for ILambda_65_0, Initial residual = 7.572815784e-16, Final residual = 2.24206539677e-61, No Iterations 17
DILUPBiCGStab:  Solving for ILambda_66_0, Initial residual = 7.82092829195e-16, Final residual = 2.85617128998e-62, No Iterations 16
DILUPBiCGStab:  Solving for ILambda_67_0, Initial residual = 8.01672071383e-16, Final residual = 8.91391095339e-62, No Iterations 16
DILUPBiCGStab:  Solving for ILambda_68_0, Initial residual = 8.13517512906e-16, Final residual = 5.33901357204e-61, No Iterations 16
DILUPBiCGStab:  Solving for ILambda_69_0, Initial residual = 8.3365150029e-16, Final residual = 6.94715604269e-61, No Iterations 17
DILUPBiCGStab:  Solving for ILambda_70_0, Initial residual = 7.78905763661e-16, Final residual = 1.11597117837e-62, No Iterations 15
DILUPBiCGStab:  Solving for ILambda_71_0, Initial residual = 7.10443680144e-16, Final residual = 1.66135415866e-61, No Iterations 14
DILUPBiCGStab:  Solving for ILambda_72_0, Initial residual = 9.62113083756e-16, Final residual = 4.02215472886e-61, No Iterations 26
DILUPBiCGStab:  Solving for ILambda_73_0, Initial residual = 1.19634608446e-15, Final residual = 2.21116406838e-61, No Iterations 33
DILUPBiCGStab:  Solving for ILambda_74_0, Initial residual = 1.32296939464e-15, Final residual = 4.68574941854e-62, No Iterations 37
DILUPBiCGStab:  Solving for ILambda_75_0, Initial residual = 1.43491915052e-15, Final residual = 1.75696230827e-61, No Iterations 39
DILUPBiCGStab:  Solving for ILambda_76_0, Initial residual = 1.39613049628e-15, Final residual = 1.75455266801e-61, No Iterations 40
DILUPBiCGStab:  Solving for ILambda_77_0, Initial residual = 1.31086289655e-15, Final residual = 5.5578528168e-61, No Iterations 38
DILUPBiCGStab:  Solving for ILambda_78_0, Initial residual = 1.12024809649e-15, Final residual = 2.81186323027e-61, No Iterations 33
DILUPBiCGStab:  Solving for ILambda_79_0, Initial residual = 9.1284953494e-16, Final residual = 2.77711601732e-62, No Iterations 25
DILUPBiCGStab:  Solving for ILambda_80_0, Initial residual = 4.34463384149e-16, Final residual = 2.94600261491e-63, No Iterations 2
DILUPBiCGStab:  Solving for ILambda_81_0, Initial residual = 5.023380904e-16, Final residual = 2.72616738267e-63, No Iterations 2
DILUPBiCGStab:  Solving for ILambda_82_0, Initial residual = 4.91797931689e-16, Final residual = 3.95048297196e-63, No Iterations 2
DILUPBiCGStab:  Solving for ILambda_83_0, Initial residual = 4.55271767652e-16, Final residual = 1.89712887754e-63, No Iterations 2
DILUPBiCGStab:  Solving for ILambda_84_0, Initial residual = 4.47831655621e-16, Final residual = 2.16295976198e-63, No Iterations 2
DILUPBiCGStab:  Solving for ILambda_85_0, Initial residual = 4.18974028107e-16, Final residual = 2.45751737206e-63, No Iterations 2
DILUPBiCGStab:  Solving for ILambda_86_0, Initial residual = 4.00493398953e-16, Final residual = 1.78234176819e-63, No Iterations 2
DILUPBiCGStab:  Solving for ILambda_87_0, Initial residual = 3.80065722937e-16, Final residual = 2.41191933124e-63, No Iterations 2
DILUPBiCGStab:  Solving for ILambda_88_0, Initial residual = 9.25554287648e-16, Final residual = 1.57481705091e-62, No Iterations 26
DILUPBiCGStab:  Solving for ILambda_89_0, Initial residual = 1.12918928376e-15, Final residual = 4.2572911375e-61, No Iterations 34
DILUPBiCGStab:  Solving for ILambda_90_0, Initial residual = 1.31872722549e-15, Final residual = 4.11798354967e-61, No Iterations 38
DILUPBiCGStab:  Solving for ILambda_91_0, Initial residual = 1.40267866505e-15, Final residual = 9.1820685124e-61, No Iterations 40
DILUPBiCGStab:  Solving for ILambda_92_0, Initial residual = 1.43967255543e-15, Final residual = 2.30599835886e-61, No Iterations 39
DILUPBiCGStab:  Solving for ILambda_93_0, Initial residual = 1.32711366756e-15, Final residual = 1.18208702511e-61, No Iterations 38
DILUPBiCGStab:  Solving for ILambda_94_0, Initial residual = 1.18464204858e-15, Final residual = 7.48704117895e-61, No Iterations 33
DILUPBiCGStab:  Solving for ILambda_95_0, Initial residual = 9.77558930371e-16, Final residual = 4.79368384641e-61, No Iterations 26
DILUPBiCGStab:  Solving for ILambda_96_0, Initial residual = 2.69535462108e-16, Final residual = 2.97512780046e-62, No Iterations 14
DILUPBiCGStab:  Solving for ILambda_97_0, Initial residual = 2.9381644176e-16, Final residual = 2.11107732931e-61, No Iterations 13
DILUPBiCGStab:  Solving for ILambda_98_0, Initial residual = 2.89835329182e-16, Final residual = 1.34178248051e-61, No Iterations 14
DILUPBiCGStab:  Solving for ILambda_99_0, Initial residual = 3.21039746419e-16, Final residual = 8.83229143003e-61, No Iterations 15
DILUPBiCGStab:  Solving for ILambda_100_0, Initial residual = 3.17980489827e-16, Final residual = 1.97579657055e-62, No Iterations 14
DILUPBiCGStab:  Solving for ILambda_101_0, Initial residual = 3.11660745543e-16, Final residual = 5.37175109455e-62, No Iterations 14
DILUPBiCGStab:  Solving for ILambda_102_0, Initial residual = 2.96930085136e-16, Final residual = 6.85299001098e-62, No Iterations 13
DILUPBiCGStab:  Solving for ILambda_103_0, Initial residual = 2.76986451496e-16, Final residual = 3.00855144233e-62, No Iterations 13
DILUPBiCGStab:  Solving for ILambda_104_0, Initial residual = 3.14540525748e-16, Final residual = 1.74494144364e-61, No Iterations 23
DILUPBiCGStab:  Solving for ILambda_105_0, Initial residual = 3.74692308692e-16, Final residual = 7.99751257134e-63, No Iterations 30
DILUPBiCGStab:  Solving for ILambda_106_0, Initial residual = 4.04942237872e-16, Final residual = 6.18979992429e-61, No Iterations 34
DILUPBiCGStab:  Solving for ILambda_107_0, Initial residual = 4.36935263475e-16, Final residual = 4.69498490852e-64, No Iterations 35
DILUPBiCGStab:  Solving for ILambda_108_0, Initial residual = 4.09989331414e-16, Final residual = 3.32714917233e-61, No Iterations 35
DILUPBiCGStab:  Solving for ILambda_109_0, Initial residual = 3.66583239219e-16, Final residual = 2.14120328526e-62, No Iterations 33
DILUPBiCGStab:  Solving for ILambda_110_0, Initial residual = 3.47289527647e-16, Final residual = 2.02696871492e-61, No Iterations 31
DILUPBiCGStab:  Solving for ILambda_111_0, Initial residual = 2.8758643567e-16, Final residual = 3.01878103737e-61, No Iterations 22
DILUPBiCGStab:  Solving for ILambda_112_0, Initial residual = 1.2528267595e-16, Final residual = 9.03192152468e-64, No Iterations 2
DILUPBiCGStab:  Solving for ILambda_113_0, Initial residual = 1.32932177099e-16, Final residual = 5.48211938749e-64, No Iterations 2
DILUPBiCGStab:  Solving for ILambda_114_0, Initial residual = 1.31441979221e-16, Final residual = 4.62859615192e-64, No Iterations 2
DILUPBiCGStab:  Solving for ILambda_115_0, Initial residual = 1.37302155182e-16, Final residual = 3.28241758543e-64, No Iterations 2
DILUPBiCGStab:  Solving for ILambda_116_0, Initial residual = 1.42357406741e-16, Final residual = 3.62142928597e-64, No Iterations 2
DILUPBiCGStab:  Solving for ILambda_117_0, Initial residual = 1.16278943882e-16, Final residual = 3.94860780473e-64, No Iterations 2
DILUPBiCGStab:  Solving for ILambda_118_0, Initial residual = 1.22927728209e-16, Final residual = 4.59761580823e-64, No Iterations 2
DILUPBiCGStab:  Solving for ILambda_119_0, Initial residual = 1.15971658554e-16, Final residual = 4.8832472651e-64, No Iterations 2
DILUPBiCGStab:  Solving for ILambda_120_0, Initial residual = 2.85119995022e-16, Final residual = 3.63669345781e-61, No Iterations 22
DILUPBiCGStab:  Solving for ILambda_121_0, Initial residual = 3.43667367842e-16, Final residual = 1.07728245271e-64, No Iterations 31
DILUPBiCGStab:  Solving for ILambda_122_0, Initial residual = 3.74567219089e-16, Final residual = 3.89631957453e-61, No Iterations 33
DILUPBiCGStab:  Solving for ILambda_123_0, Initial residual = 4.21913633774e-16, Final residual = 2.93427046334e-61, No Iterations 34
DILUPBiCGStab:  Solving for ILambda_124_0, Initial residual = 4.34833214279e-16, Final residual = 1.25858729836e-61, No Iterations 35
DILUPBiCGStab:  Solving for ILambda_125_0, Initial residual = 4.06190414562e-16, Final residual = 4.47987570185e-61, No Iterations 33
DILUPBiCGStab:  Solving for ILambda_126_0, Initial residual = 3.90287718963e-16, Final residual = 9.4924364502e-61, No Iterations 29
DILUPBiCGStab:  Solving for ILambda_127_0, Initial residual = 3.14730879492e-16, Final residual = 2.02828239664e-61, No Iterations 23
min/max(T) = 1000, 1000
PIMPLE: iteration 2
Radiation solver iter: 0
DILUPBiCGStab:  Solving for ILambda_0_0, Initial residual = 1.12436517603e-16, Final residual = 4.61391288546e-64, No Iterations 2
DILUPBiCGStab:  Solving for ILambda_1_0, Initial residual = 1.121101969e-16, Final residual = 4.46290624089e-64, No Iterations 2
DILUPBiCGStab:  Solving for ILambda_2_0, Initial residual = 1.08955763436e-16, Final residual = 3.90010066068e-64, No Iterations 2
DILUPBiCGStab:  Solving for ILambda_3_0, Initial residual = 1.21157438394e-16, Final residual = 4.93463457394e-64, No Iterations 2
DILUPBiCGStab:  Solving for ILambda_4_0, Initial residual = 1.29035364036e-16, Final residual = 1.42815461699e-63, No Iterations 2
DILUPBiCGStab:  Solving for ILambda_5_0, Initial residual = 1.16896233879e-16, Final residual = 4.98538226814e-64, No Iterations 2
DILUPBiCGStab:  Solving for ILambda_6_0, Initial residual = 1.1979233012e-16, Final residual = 4.36980600776e-64, No Iterations 2
DILUPBiCGStab:  Solving for ILambda_7_0, Initial residual = 1.17388434273e-16, Final residual = 4.43565468337e-64, No Iterations 2
DILUPBiCGStab:  Solving for ILambda_8_0, Initial residual = 1.26125671099e-16, Final residual = 3.85182290312e-62, No Iterations 23
DILUPBiCGStab:  Solving for ILambda_9_0, Initial residual = 1.33244901106e-16, Final residual = 3.93048964208e-62, No Iterations 30
DILUPBiCGStab:  Solving for ILambda_10_0, Initial residual = 1.246409119e-16, Final residual = 2.36451265494e-61, No Iterations 32
DILUPBiCGStab:  Solving for ILambda_11_0, Initial residual = 1.32823403531e-16, Final residual = 5.16937389921e-61, No Iterations 35
DILUPBiCGStab:  Solving for ILambda_12_0, Initial residual = 1.43445142418e-16, Final residual = 1.95935891137e-62, No Iterations 34
DILUPBiCGStab:  Solving for ILambda_13_0, Initial residual = 1.3811795694e-16, Final residual = 2.68016733477e-61, No Iterations 32
DILUPBiCGStab:  Solving for ILambda_14_0, Initial residual = 1.42716359515e-16, Final residual = 6.94852730976e-61, No Iterations 29
DILUPBiCGStab:  Solving for ILambda_15_0, Initial residual = 1.34626325416e-16, Final residual = 4.23114477044e-61, No Iterations 23
DILUPBiCGStab:  Solving for ILambda_16_0, Initial residual = 1.3151268204e-16, Final residual = 2.08155029483e-61, No Iterations 13
DILUPBiCGStab:  Solving for ILambda_17_0, Initial residual = 1.37315751878e-16, Final residual = 7.67166233291e-62, No Iterations 13
DILUPBiCGStab:  Solving for ILambda_18_0, Initial residual = 1.33209549697e-16, Final residual = 3.23349029683e-63, No Iterations 12
DILUPBiCGStab:  Solving for ILambda_19_0, Initial residual = 1.39602716139e-16, Final residual = 6.28255647774e-61, No Iterations 13
DILUPBiCGStab:  Solving for ILambda_20_0, Initial residual = 1.29932745969e-16, Final residual = 1.92480018129e-61, No Iterations 13
DILUPBiCGStab:  Solving for ILambda_21_0, Initial residual = 1.21954204778e-16, Final residual = 1.07010438885e-61, No Iterations 12
DILUPBiCGStab:  Solving for ILambda_22_0, Initial residual = 1.27314022327e-16, Final residual = 4.7361318559e-61, No Iterations 12
DILUPBiCGStab:  Solving for ILambda_23_0, Initial residual = 1.24515822297e-16, Final residual = 2.84096763544e-62, No Iterations 12
DILUPBiCGStab:  Solving for ILambda_24_0, Initial residual = 1.3616275206e-16, Final residual = 1.91212735686e-61, No Iterations 22
DILUPBiCGStab:  Solving for ILambda_25_0, Initial residual = 1.44358840387e-16, Final residual = 3.79927214125e-61, No Iterations 29
DILUPBiCGStab:  Solving for ILambda_26_0, Initial residual = 1.36695742542e-16, Final residual = 6.78206541093e-64, No Iterations 34
DILUPBiCGStab:  Solving for ILambda_27_0, Initial residual = 1.40704048512e-16, Final residual = 2.17423382672e-61, No Iterations 34
DILUPBiCGStab:  Solving for ILambda_28_0, Initial residual = 1.36111084615e-16, Final residual = 7.18449232665e-61, No Iterations 34
DILUPBiCGStab:  Solving for ILambda_29_0, Initial residual = 1.25220131148e-16, Final residual = 3.61612835798e-61, No Iterations 33
DILUPBiCGStab:  Solving for ILambda_30_0, Initial residual = 1.30182925175e-16, Final residual = 4.93674150122e-61, No Iterations 30
DILUPBiCGStab:  Solving for ILambda_31_0, Initial residual = 1.24434242122e-16, Final residual = 3.94923367426e-64, No Iterations 23
DILUPBiCGStab:  Solving for ILambda_32_0, Initial residual = 4.11936378276e-16, Final residual = 2.98018530653e-63, No Iterations 2
DILUPBiCGStab:  Solving for ILambda_33_0, Initial residual = 4.25794130803e-16, Final residual = 2.10119201607e-63, No Iterations 2
DILUPBiCGStab:  Solving for ILambda_34_0, Initial residual = 4.25620093094e-16, Final residual = 3.18427447686e-63, No Iterations 2
DILUPBiCGStab:  Solving for ILambda_35_0, Initial residual = 4.31678780816e-16, Final residual = 1.64839544141e-63, No Iterations 2
DILUPBiCGStab:  Solving for ILambda_36_0, Initial residual = 4.48854127157e-16, Final residual = 1.77300433427e-63, No Iterations 2
DILUPBiCGStab:  Solving for ILambda_37_0, Initial residual = 4.67487039306e-16, Final residual = 2.88756189011e-63, No Iterations 2
DILUPBiCGStab:  Solving for ILambda_38_0, Initial residual = 5.02044401768e-16, Final residual = 2.55409588118e-63, No Iterations 2
DILUPBiCGStab:  Solving for ILambda_39_0, Initial residual = 4.38422742014e-16, Final residual = 2.821807828e-63, No Iterations 2
DILUPBiCGStab:  Solving for ILambda_40_0, Initial residual = 4.54727899814e-16, Final residual = 2.40459288186e-61, No Iterations 25
DILUPBiCGStab:  Solving for ILambda_41_0, Initial residual = 4.74339774072e-16, Final residual = 3.98147691375e-62, No Iterations 34
DILUPBiCGStab:  Solving for ILambda_42_0, Initial residual = 4.76156292653e-16, Final residual = 2.66235419739e-62, No Iterations 38
DILUPBiCGStab:  Solving for ILambda_43_0, Initial residual = 5.27584435466e-16, Final residual = 4.86560617651e-61, No Iterations 38
DILUPBiCGStab:  Solving for ILambda_44_0, Initial residual = 5.49926526274e-16, Final residual = 4.3310631213e-61, No Iterations 38
DILUPBiCGStab:  Solving for ILambda_45_0, Initial residual = 5.26551086573e-16, Final residual = 5.58009974758e-62, No Iterations 38
DILUPBiCGStab:  Solving for ILambda_46_0, Initial residual = 5.70549994712e-16, Final residual = 5.59043163238e-63, No Iterations 33
DILUPBiCGStab:  Solving for ILambda_47_0, Initial residual = 4.89209120778e-16, Final residual = 1.65756798522e-61, No Iterations 25
DILUPBiCGStab:  Solving for ILambda_48_0, Initial residual = 4.81812518174e-16, Final residual = 3.94318190536e-62, No Iterations 13
DILUPBiCGStab:  Solving for ILambda_49_0, Initial residual = 5.42094829399e-16, Final residual = 1.00332911937e-61, No Iterations 13
DILUPBiCGStab:  Solving for ILambda_50_0, Initial residual = 4.99596996494e-16, Final residual = 3.80885205085e-61, No Iterations 12
DILUPBiCGStab:  Solving for ILambda_51_0, Initial residual = 4.99955949268e-16, Final residual = 1.65229383573e-61, No Iterations 15
DILUPBiCGStab:  Solving for ILambda_52_0, Initial residual = 4.63582068225e-16, Final residual = 3.60136282309e-61, No Iterations 14
DILUPBiCGStab:  Solving for ILambda_53_0, Initial residual = 4.52117334189e-16, Final residual = 4.90121798038e-62, No Iterations 14
DILUPBiCGStab:  Solving for ILambda_54_0, Initial residual = 4.64136813421e-16, Final residual = 9.62824641505e-61, No Iterations 14
DILUPBiCGStab:  Solving for ILambda_55_0, Initial residual = 4.20105273211e-16, Final residual = 5.72559176847e-63, No Iterations 14
DILUPBiCGStab:  Solving for ILambda_56_0, Initial residual = 4.74231000504e-16, Final residual = 6.51930361995e-61, No Iterations 25
DILUPBiCGStab:  Solving for ILambda_57_0, Initial residual = 5.64948155975e-16, Final residual = 4.12837802852e-61, No Iterations 33
DILUPBiCGStab:  Solving for ILambda_58_0, Initial residual = 5.32000642315e-16, Final residual = 6.19008667066e-62, No Iterations 37
DILUPBiCGStab:  Solving for ILambda_59_0, Initial residual = 5.11420683304e-16, Final residual = 2.20201342779e-61, No Iterations 39
DILUPBiCGStab:  Solving for ILambda_60_0, Initial residual = 5.0927784402e-16, Final residual = 5.1240137093e-61, No Iterations 39
DILUPBiCGStab:  Solving for ILambda_61_0, Initial residual = 4.95474478278e-16, Final residual = 3.87773626535e-61, No Iterations 38
DILUPBiCGStab:  Solving for ILambda_62_0, Initial residual = 4.72664661129e-16, Final residual = 2.5615141522e-61, No Iterations 33
DILUPBiCGStab:  Solving for ILambda_63_0, Initial residual = 4.43643873264e-16, Final residual = 1.95383742605e-61, No Iterations 25
DILUPBiCGStab:  Solving for ILambda_64_0, Initial residual = 3.82719797989e-16, Final residual = 2.1371122825e-61, No Iterations 14
DILUPBiCGStab:  Solving for ILambda_65_0, Initial residual = 4.17831905646e-16, Final residual = 3.39415013681e-62, No Iterations 14
DILUPBiCGStab:  Solving for ILambda_66_0, Initial residual = 4.22171970998e-16, Final residual = 5.95811761831e-62, No Iterations 15
DILUPBiCGStab:  Solving for ILambda_67_0, Initial residual = 4.48527806454e-16, Final residual = 1.19064462153e-61, No Iterations 12
DILUPBiCGStab:  Solving for ILambda_68_0, Initial residual = 4.47831655621e-16, Final residual = 8.36391503601e-62, No Iterations 15
DILUPBiCGStab:  Solving for ILambda_69_0, Initial residual = 4.85206253486e-16, Final residual = 6.68785639014e-62, No Iterations 14
DILUPBiCGStab:  Solving for ILambda_70_0, Initial residual = 4.85543451546e-16, Final residual = 7.39525288513e-62, No Iterations 16
DILUPBiCGStab:  Solving for ILambda_71_0, Initial residual = 4.18865254539e-16, Final residual = 6.78406458959e-61, No Iterations 15
DILUPBiCGStab:  Solving for ILambda_72_0, Initial residual = 3.92966268068e-16, Final residual = 9.95842568251e-62, No Iterations 25
DILUPBiCGStab:  Solving for ILambda_73_0, Initial residual = 4.39086260777e-16, Final residual = 5.48398847657e-61, No Iterations 33
DILUPBiCGStab:  Solving for ILambda_74_0, Initial residual = 4.36997808277e-16, Final residual = 7.70278642632e-63, No Iterations 37
DILUPBiCGStab:  Solving for ILambda_75_0, Initial residual = 4.70597963342e-16, Final residual = 7.26652031272e-61, No Iterations 39
DILUPBiCGStab:  Solving for ILambda_76_0, Initial residual = 4.72523255491e-16, Final residual = 3.79675189738e-62, No Iterations 40
DILUPBiCGStab:  Solving for ILambda_77_0, Initial residual = 5.13704928226e-16, Final residual = 7.87231512423e-61, No Iterations 38
DILUPBiCGStab:  Solving for ILambda_78_0, Initial residual = 4.94495516168e-16, Final residual = 9.25392233072e-61, No Iterations 33
DILUPBiCGStab:  Solving for ILambda_79_0, Initial residual = 4.31374214826e-16, Final residual = 6.49356627046e-62, No Iterations 26
DILUPBiCGStab:  Solving for ILambda_80_0, Initial residual = 3.95587711049e-16, Final residual = 2.91173886607e-63, No Iterations 2
DILUPBiCGStab:  Solving for ILambda_81_0, Initial residual = 4.8044197122e-16, Final residual = 2.92716309147e-63, No Iterations 2
DILUPBiCGStab:  Solving for ILambda_82_0, Initial residual = 4.73371689319e-16, Final residual = 2.90539837259e-63, No Iterations 2
DILUPBiCGStab:  Solving for ILambda_83_0, Initial residual = 4.28567856779e-16, Final residual = 2.86854104944e-63, No Iterations 2
DILUPBiCGStab:  Solving for ILambda_84_0, Initial residual = 4.27534507886e-16, Final residual = 1.77552553677e-63, No Iterations 2
DILUPBiCGStab:  Solving for ILambda_85_0, Initial residual = 3.86505118146e-16, Final residual = 1.9992713669e-63, No Iterations 2
DILUPBiCGStab:  Solving for ILambda_86_0, Initial residual = 3.78956232546e-16, Final residual = 1.62468100287e-63, No Iterations 2
DILUPBiCGStab:  Solving for ILambda_87_0, Initial residual = 3.50805633223e-16, Final residual = 1.86847711863e-63, No Iterations 2
DILUPBiCGStab:  Solving for ILambda_88_0, Initial residual = 4.08618784461e-16, Final residual = 9.70290037515e-62, No Iterations 25
DILUPBiCGStab:  Solving for ILambda_89_0, Initial residual = 4.97660826989e-16, Final residual = 2.96914705414e-61, No Iterations 32
DILUPBiCGStab:  Solving for ILambda_90_0, Initial residual = 5.06504118044e-16, Final residual = 2.34827251419e-61, No Iterations 37
DILUPBiCGStab:  Solving for ILambda_91_0, Initial residual = 4.64832964254e-16, Final residual = 1.26887676233e-61, No Iterations 39
DILUPBiCGStab:  Solving for ILambda_92_0, Initial residual = 4.77483330179e-16, Final residual = 4.08653272686e-61, No Iterations 38
DILUPBiCGStab:  Solving for ILambda_93_0, Initial residual = 4.4085926993e-16, Final residual = 3.08607065835e-61, No Iterations 37
DILUPBiCGStab:  Solving for ILambda_94_0, Initial residual = 4.3493111049e-16, Final residual = 9.81639669031e-61, No Iterations 32
DILUPBiCGStab:  Solving for ILambda_95_0, Initial residual = 3.9187853239e-16, Final residual = 3.029337693e-61, No Iterations 25
DILUPBiCGStab:  Solving for ILambda_96_0, Initial residual = 1.22375702353e-16, Final residual = 4.45017251564e-61, No Iterations 12
DILUPBiCGStab:  Solving for ILambda_97_0, Initial residual = 1.28951064521e-16, Final residual = 5.10760720663e-62, No Iterations 13
DILUPBiCGStab:  Solving for ILambda_98_0, Initial residual = 1.22378421692e-16, Final residual = 6.29550606484e-61, No Iterations 13
DILUPBiCGStab:  Solving for ILambda_99_0, Initial residual = 1.46395625442e-16, Final residual = 5.39889201882e-61, No Iterations 13
DILUPBiCGStab:  Solving for ILambda_100_0, Initial residual = 1.38069008834e-16, Final residual = 1.92139917737e-61, No Iterations 12
DILUPBiCGStab:  Solving for ILambda_101_0, Initial residual = 1.33508677008e-16, Final residual = 2.03529710919e-61, No Iterations 13
DILUPBiCGStab:  Solving for ILambda_102_0, Initial residual = 1.39110515745e-16, Final residual = 1.20172944131e-61, No Iterations 13
DILUPBiCGStab:  Solving for ILambda_103_0, Initial residual = 1.3178461596e-16, Final residual = 2.68270155444e-61, No Iterations 12
DILUPBiCGStab:  Solving for ILambda_104_0, Initial residual = 1.2720252942e-16, Final residual = 9.3038720688e-63, No Iterations 24
DILUPBiCGStab:  Solving for ILambda_105_0, Initial residual = 1.36309596376e-16, Final residual = 1.88718214927e-61, No Iterations 29
DILUPBiCGStab:  Solving for ILambda_106_0, Initial residual = 1.2629155079e-16, Final residual = 1.12570764709e-61, No Iterations 32
DILUPBiCGStab:  Solving for ILambda_107_0, Initial residual = 1.49520146175e-16, Final residual = 3.84065323878e-61, No Iterations 35
DILUPBiCGStab:  Solving for ILambda_108_0, Initial residual = 1.45563507649e-16, Final residual = 5.76986196283e-61, No Iterations 34
DILUPBiCGStab:  Solving for ILambda_109_0, Initial residual = 1.3491729471e-16, Final residual = 3.71168064107e-63, No Iterations 33
DILUPBiCGStab:  Solving for ILambda_110_0, Initial residual = 1.40859050846e-16, Final residual = 6.03664391018e-62, No Iterations 29
DILUPBiCGStab:  Solving for ILambda_111_0, Initial residual = 1.33193233661e-16, Final residual = 4.99694916535e-61, No Iterations 22
DILUPBiCGStab:  Solving for ILambda_112_0, Initial residual = 1.12732925575e-16, Final residual = 4.12682693447e-64, No Iterations 2
DILUPBiCGStab:  Solving for ILambda_113_0, Initial residual = 1.1918319814e-16, Final residual = 4.59234300019e-64, No Iterations 2
DILUPBiCGStab:  Solving for ILambda_114_0, Initial residual = 1.18595820875e-16, Final residual = 3.98733811909e-64, No Iterations 2
DILUPBiCGStab:  Solving for ILambda_115_0, Initial residual = 1.25274517932e-16, Final residual = 5.75898119453e-64, No Iterations 2
DILUPBiCGStab:  Solving for ILambda_116_0, Initial residual = 1.37389174036e-16, Final residual = 3.09317313623e-64, No Iterations 2
DILUPBiCGStab:  Solving for ILambda_117_0, Initial residual = 1.08384702206e-16, Final residual = 3.46702778193e-64, No Iterations 2
DILUPBiCGStab:  Solving for ILambda_118_0, Initial residual = 1.12705732183e-16, Final residual = 3.79888029989e-64, No Iterations 2
DILUPBiCGStab:  Solving for ILambda_119_0, Initial residual = 1.07060384019e-16, Final residual = 6.3075956137e-64, No Iterations 2
DILUPBiCGStab:  Solving for ILambda_120_0, Initial residual = 1.24099763401e-16, Final residual = 1.29504936218e-61, No Iterations 23
DILUPBiCGStab:  Solving for ILambda_121_0, Initial residual = 1.41027649876e-16, Final residual = 8.76891374037e-67, No Iterations 31
DILUPBiCGStab:  Solving for ILambda_122_0, Initial residual = 1.38221291829e-16, Final residual = 1.89276396426e-64, No Iterations 34
DILUPBiCGStab:  Solving for ILambda_123_0, Initial residual = 1.39722367063e-16, Final residual = 5.49301226033e-61, No Iterations 35
DILUPBiCGStab:  Solving for ILambda_124_0, Initial residual = 1.52418961754e-16, Final residual = 6.83853115842e-63, No Iterations 35
DILUPBiCGStab:  Solving for ILambda_125_0, Initial residual = 1.26870770038e-16, Final residual = 2.65439794748e-61, No Iterations 33
DILUPBiCGStab:  Solving for ILambda_126_0, Initial residual = 1.33016476614e-16, Final residual = 7.88747355409e-61, No Iterations 30
DILUPBiCGStab:  Solving for ILambda_127_0, Initial residual = 1.25402326874e-16, Final residual = 3.9256879958e-62, No Iterations 23
min/max(T) = 1000, 1000
PIMPLE: iteration 3
Radiation solver iter: 0
DILUPBiCGStab:  Solving for ILambda_0_0, Initial residual = 1.09086291718e-16, Final residual = 4.69227344876e-64, No Iterations 2
DILUPBiCGStab:  Solving for ILambda_1_0, Initial residual = 1.11055093293e-16, Final residual = 4.46872293423e-64, No Iterations 2
DILUPBiCGStab:  Solving for ILambda_2_0, Initial residual = 1.10152272681e-16, Final residual = 3.91544083893e-64, No Iterations 2
DILUPBiCGStab:  Solving for ILambda_3_0, Initial residual = 1.1979233012e-16, Final residual = 8.85174719526e-64, No Iterations 2
DILUPBiCGStab:  Solving for ILambda_4_0, Initial residual = 1.24347223267e-16, Final residual = 2.77020363301e-64, No Iterations 2
DILUPBiCGStab:  Solving for ILambda_5_0, Initial residual = 1.1561270578e-16, Final residual = 4.13887704058e-64, No Iterations 2
DILUPBiCGStab:  Solving for ILambda_6_0, Initial residual = 1.17382995595e-16, Final residual = 4.1290204855e-64, No Iterations 2
DILUPBiCGStab:  Solving for ILambda_7_0, Initial residual = 1.13983821604e-16, Final residual = 4.29892441456e-64, No Iterations 2
DILUPBiCGStab:  Solving for ILambda_8_0, Initial residual = 1.11525538974e-16, Final residual = 1.15381640116e-62, No Iterations 23
DILUPBiCGStab:  Solving for ILambda_9_0, Initial residual = 1.14949187017e-16, Final residual = 2.13874298929e-61, No Iterations 30
DILUPBiCGStab:  Solving for ILambda_10_0, Initial residual = 1.11530977652e-16, Final residual = 7.2057517383e-61, No Iterations 33
DILUPBiCGStab:  Solving for ILambda_11_0, Initial residual = 1.19479606112e-16, Final residual = 2.94815220259e-62, No Iterations 36
DILUPBiCGStab:  Solving for ILambda_12_0, Initial residual = 1.28915713111e-16, Final residual = 2.25111895886e-63, No Iterations 35
DILUPBiCGStab:  Solving for ILambda_13_0, Initial residual = 1.18639330302e-16, Final residual = 7.14587149038e-61, No Iterations 32
DILUPBiCGStab:  Solving for ILambda_14_0, Initial residual = 1.22870622086e-16, Final residual = 8.19112225327e-61, No Iterations 30
DILUPBiCGStab:  Solving for ILambda_15_0, Initial residual = 1.18791613297e-16, Final residual = 3.05688384376e-61, No Iterations 23
DILUPBiCGStab:  Solving for ILambda_16_0, Initial residual = 1.16007009963e-16, Final residual = 3.94648260334e-61, No Iterations 12
DILUPBiCGStab:  Solving for ILambda_17_0, Initial residual = 1.22005872222e-16, Final residual = 1.47194400694e-61, No Iterations 12
DILUPBiCGStab:  Solving for ILambda_18_0, Initial residual = 1.19395306597e-16, Final residual = 3.07394218231e-61, No Iterations 12
DILUPBiCGStab:  Solving for ILambda_19_0, Initial residual = 1.27806222721e-16, Final residual = 3.75010752534e-61, No Iterations 13
DILUPBiCGStab:  Solving for ILambda_20_0, Initial residual = 1.20920855885e-16, Final residual = 4.51678176975e-62, No Iterations 12
DILUPBiCGStab:  Solving for ILambda_21_0, Initial residual = 1.11457555494e-16, Final residual = 1.46192280031e-62, No Iterations 12
DILUPBiCGStab:  Solving for ILambda_22_0, Initial residual = 1.11998703993e-16, Final residual = 7.03570639195e-63, No Iterations 12
DILUPBiCGStab:  Solving for ILambda_23_0, Initial residual = 1.11313430517e-16, Final residual = 1.08833367316e-61, No Iterations 12
DILUPBiCGStab:  Solving for ILambda_24_0, Initial residual = 1.18497924664e-16, Final residual = 2.06477671219e-61, No Iterations 23
DILUPBiCGStab:  Solving for ILambda_25_0, Initial residual = 1.21502794472e-16, Final residual = 4.13725627508e-61, No Iterations 29
DILUPBiCGStab:  Solving for ILambda_26_0, Initial residual = 1.19977245185e-16, Final residual = 5.3252324389e-62, No Iterations 33
DILUPBiCGStab:  Solving for ILambda_27_0, Initial residual = 1.2622356731e-16, Final residual = 5.59553370728e-61, No Iterations 34
DILUPBiCGStab:  Solving for ILambda_28_0, Initial residual = 1.23441683316e-16, Final residual = 8.73758790285e-62, No Iterations 34
DILUPBiCGStab:  Solving for ILambda_29_0, Initial residual = 1.16107625513e-16, Final residual = 1.635599294e-61, No Iterations 33
DILUPBiCGStab:  Solving for ILambda_30_0, Initial residual = 1.13415479713e-16, Final residual = 9.29954792251e-61, No Iterations 30
DILUPBiCGStab:  Solving for ILambda_31_0, Initial residual = 1.10538418847e-16, Final residual = 6.80183365822e-61, No Iterations 23
DILUPBiCGStab:  Solving for ILambda_32_0, Initial residual = 3.97980729539e-16, Final residual = 2.73106259219e-63, No Iterations 2
DILUPBiCGStab:  Solving for ILambda_33_0, Initial residual = 4.23227074605e-16, Final residual = 1.92143958288e-63, No Iterations 2
DILUPBiCGStab:  Solving for ILambda_34_0, Initial residual = 4.12947972456e-16, Final residual = 2.14844860234e-63, No Iterations 2
DILUPBiCGStab:  Solving for ILambda_35_0, Initial residual = 4.23368480243e-16, Final residual = 1.66945192595e-63, No Iterations 2
DILUPBiCGStab:  Solving for ILambda_36_0, Initial residual = 4.49223957287e-16, Final residual = 1.69840978364e-63, No Iterations 2
DILUPBiCGStab:  Solving for ILambda_37_0, Initial residual = 4.6898811454e-16, Final residual = 2.43329145952e-63, No Iterations 2
DILUPBiCGStab:  Solving for ILambda_38_0, Initial residual = 5.04121976911e-16, Final residual = 2.75841721224e-63, No Iterations 2
DILUPBiCGStab:  Solving for ILambda_39_0, Initial residual = 4.27066781545e-16, Final residual = 2.48633905872e-63, No Iterations 2
DILUPBiCGStab:  Solving for ILambda_40_0, Initial residual = 4.13959566636e-16, Final residual = 5.16152192397e-61, No Iterations 25
DILUPBiCGStab:  Solving for ILambda_41_0, Initial residual = 4.27077658902e-16, Final residual = 4.18207783299e-63, No Iterations 34
DILUPBiCGStab:  Solving for ILambda_42_0, Initial residual = 4.21399678667e-16, Final residual = 3.11998940304e-61, No Iterations 37
DILUPBiCGStab:  Solving for ILambda_43_0, Initial residual = 4.25413423316e-16, Final residual = 1.95502672004e-61, No Iterations 39
DILUPBiCGStab:  Solving for ILambda_44_0, Initial residual = 4.58339182262e-16, Final residual = 2.70283904613e-61, No Iterations 38
DILUPBiCGStab:  Solving for ILambda_45_0, Initial residual = 4.70826387835e-16, Final residual = 1.57295097155e-63, No Iterations 39
DILUPBiCGStab:  Solving for ILambda_46_0, Initial residual = 5.19459049958e-16, Final residual = 2.01861428239e-61, No Iterations 32
DILUPBiCGStab:  Solving for ILambda_47_0, Initial residual = 4.42925967717e-16, Final residual = 2.99576370831e-61, No Iterations 25
DILUPBiCGStab:  Solving for ILambda_48_0, Initial residual = 4.40750496363e-16, Final residual = 3.04560515151e-62, No Iterations 13
DILUPBiCGStab:  Solving for ILambda_49_0, Initial residual = 4.95974836689e-16, Final residual = 4.50827079453e-61, No Iterations 15
DILUPBiCGStab:  Solving for ILambda_50_0, Initial residual = 4.64941737822e-16, Final residual = 1.38282867416e-61, No Iterations 13
DILUPBiCGStab:  Solving for ILambda_51_0, Initial residual = 4.56022305269e-16, Final residual = 8.9488820913e-62, No Iterations 14
DILUPBiCGStab:  Solving for ILambda_52_0, Initial residual = 4.38825204214e-16, Final residual = 4.80796484701e-63, No Iterations 14
DILUPBiCGStab:  Solving for ILambda_53_0, Initial residual = 4.24869555477e-16, Final residual = 9.85988252145e-62, No Iterations 14
DILUPBiCGStab:  Solving for ILambda_54_0, Initial residual = 4.30971752626e-16, Final residual = 6.77523291035e-61, No Iterations 13
DILUPBiCGStab:  Solving for ILambda_55_0, Initial residual = 4.02527464669e-16, Final residual = 4.41933179188e-61, No Iterations 12
DILUPBiCGStab:  Solving for ILambda_56_0, Initial residual = 4.1680943411e-16, Final residual = 8.81292416402e-61, No Iterations 25
DILUPBiCGStab:  Solving for ILambda_57_0, Initial residual = 5.01032807588e-16, Final residual = 5.09098107247e-61, No Iterations 32
DILUPBiCGStab:  Solving for ILambda_58_0, Initial residual = 4.80137405231e-16, Final residual = 2.8525441225e-61, No Iterations 37
DILUPBiCGStab:  Solving for ILambda_59_0, Initial residual = 5.54495016118e-16, Final residual = 4.05604373628e-61, No Iterations 39
DILUPBiCGStab:  Solving for ILambda_60_0, Initial residual = 4.44764241011e-16, Final residual = 6.40937260806e-61, No Iterations 39
DILUPBiCGStab:  Solving for ILambda_61_0, Initial residual = 5.01413515075e-16, Final residual = 1.36377681379e-61, No Iterations 38
DILUPBiCGStab:  Solving for ILambda_62_0, Initial residual = 4.27512753172e-16, Final residual = 6.22423929866e-62, No Iterations 33
DILUPBiCGStab:  Solving for ILambda_63_0, Initial residual = 4.04420124748e-16, Final residual = 1.2716552897e-61, No Iterations 25
DILUPBiCGStab:  Solving for ILambda_64_0, Initial residual = 3.49685265476e-16, Final residual = 2.44185130331e-61, No Iterations 15
DILUPBiCGStab:  Solving for ILambda_65_0, Initial residual = 3.78716930697e-16, Final residual = 2.90752642908e-61, No Iterations 14
[...]
DILUPBiCGStab:  Solving for ILambda_108_0, Initial residual = 1.17926863433e-16, Final residual = 7.90453810814e-61, No Iterations 34
DILUPBiCGStab:  Solving for ILambda_109_0, Initial residual = 1.12972227424e-16, Final residual = 1.53720432474e-62, No Iterations 33
DILUPBiCGStab:  Solving for ILambda_110_0, Initial residual = 1.12031336063e-16, Final residual = 6.23446663375e-61, No Iterations 28
DILUPBiCGStab:  Solving for ILambda_111_0, Initial residual = 1.09891216119e-16, Final residual = 3.28604652593e-61, No Iterations 22
DILUPBiCGStab:  Solving for ILambda_112_0, Initial residual = 1.07160999569e-16, Final residual = 3.9720674164e-64, No Iterations 2
DILUPBiCGStab:  Solving for ILambda_113_0, Initial residual = 1.14307422968e-16, Final residual = 4.05501733885e-64, No Iterations 2
DILUPBiCGStab:  Solving for ILambda_114_0, Initial residual = 1.14796904022e-16, Final residual = 3.46784330403e-64, No Iterations 2
DILUPBiCGStab:  Solving for ILambda_115_0, Initial residual = 1.17043078196e-16, Final residual = 2.81466138874e-64, No Iterations 2
DILUPBiCGStab:  Solving for ILambda_116_0, Initial residual = 1.30985130237e-16, Final residual = 3.21513235333e-64, No Iterations 2
DILUPBiCGStab:  Solving for ILambda_117_0, Initial residual = 1.05621853586e-16, Final residual = 3.30290426337e-64, No Iterations 2
DILUPBiCGStab:  Solving for ILambda_118_0, Initial residual = 1.08023030093e-16, Final residual = 3.84442301242e-64, No Iterations 2
DILUPBiCGStab:  Solving for ILambda_119_0, Initial residual = 1.01912674927e-16, Final residual = 3.8336983749e-64, No Iterations 2
DILUPBiCGStab:  Solving for ILambda_120_0, Initial residual = 1.08319438065e-16, Final residual = 1.40369392444e-61, No Iterations 22
DILUPBiCGStab:  Solving for ILambda_121_0, Initial residual = 1.12569765224e-16, Final residual = 2.07949103738e-61, No Iterations 30
DILUPBiCGStab:  Solving for ILambda_122_0, Initial residual = 1.11995984654e-16, Final residual = 6.6023049278e-61, No Iterations 33
DILUPBiCGStab:  Solving for ILambda_123_0, Initial residual = 1.12765557645e-16, Final residual = 2.34346373467e-61, No Iterations 34
DILUPBiCGStab:  Solving for ILambda_124_0, Initial residual = 1.32325764459e-16, Final residual = 1.95427522012e-62, No Iterations 34
DILUPBiCGStab:  Solving for ILambda_125_0, Initial residual = 1.05795891294e-16, Final residual = 8.30885161472e-61, No Iterations 33
DILUPBiCGStab:  Solving for ILambda_126_0, Initial residual = 1.0833847344e-16, Final residual = 8.01999579899e-61, No Iterations 29
DILUPBiCGStab:  Solving for ILambda_127_0, Initial residual = 1.05589221516e-16, Final residual = 2.09731438732e-62, No Iterations 24
min/max(T) = 1000, 1000
PIMPLE: iteration 10
Radiation solver iter: 0
DILUPBiCGStab:  Solving for ILambda_0_0, Initial residual = 1.09276645461e-16, Final residual = 4.35287896645e-64, No Iterations 2
DILUPBiCGStab:  Solving for ILambda_1_0, Initial residual = 1.08993834185e-16, Final residual = 4.12402385694e-64, No Iterations 2
DILUPBiCGStab:  Solving for ILambda_2_0, Initial residual = 1.10228414179e-16, Final residual = 4.30377260747e-64, No Iterations 2
DILUPBiCGStab:  Solving for ILambda_3_0, Initial residual = 1.19406183954e-16, Final residual = 3.19792011114e-64, No Iterations 2
DILUPBiCGStab:  Solving for ILambda_4_0, Initial residual = 1.2504609344e-16, Final residual = 2.59590040332e-63, No Iterations 2
DILUPBiCGStab:  Solving for ILambda_5_0, Initial residual = 1.12314147339e-16, Final residual = 4.5660951229e-64, No Iterations 2
DILUPBiCGStab:  Solving for ILambda_6_0, Initial residual = 1.153434912e-16, Final residual = 4.02476388534e-64, No Iterations 2
DILUPBiCGStab:  Solving for ILambda_7_0, Initial residual = 1.15134102082e-16, Final residual = 7.65026919475e-64, No Iterations 2
DILUPBiCGStab:  Solving for ILambda_8_0, Initial residual = 1.07829957011e-16, Final residual = 1.06629266977e-62, No Iterations 23
DILUPBiCGStab:  Solving for ILambda_9_0, Initial residual = 1.08825235155e-16, Final residual = 2.88521748233e-61, No Iterations 30
DILUPBiCGStab:  Solving for ILambda_10_0, Initial residual = 1.10149553342e-16, Final residual = 4.35012518634e-61, No Iterations 33
DILUPBiCGStab:  Solving for ILambda_11_0, Initial residual = 1.17956776164e-16, Final residual = 8.42894658055e-62, No Iterations 35
DILUPBiCGStab:  Solving for ILambda_12_0, Initial residual = 1.23757126663e-16, Final residual = 3.31544388897e-61, No Iterations 34
DILUPBiCGStab:  Solving for ILambda_13_0, Initial residual = 1.12248883199e-16, Final residual = 3.0792773129e-61, No Iterations 31
DILUPBiCGStab:  Solving for ILambda_14_0, Initial residual = 1.1544410675e-16, Final residual = 3.94525286704e-62, No Iterations 30
DILUPBiCGStab:  Solving for ILambda_15_0, Initial residual = 1.1362486883e-16, Final residual = 9.21621393922e-62, No Iterations 23
DILUPBiCGStab:  Solving for ILambda_16_0, Initial residual = 1.14633743671e-16, Final residual = 4.79795797122e-62, No Iterations 12
DILUPBiCGStab:  Solving for ILambda_17_0, Initial residual = 1.14552163495e-16, Final residual = 3.22363345847e-61, No Iterations 11
DILUPBiCGStab:  Solving for ILambda_18_0, Initial residual = 1.113678173e-16, Final residual = 1.3984928064e-61, No Iterations 14
DILUPBiCGStab:  Solving for ILambda_19_0, Initial residual = 1.21151999716e-16, Final residual = 4.05794396741e-61, No Iterations 13
DILUPBiCGStab:  Solving for ILambda_20_0, Initial residual = 1.18971089683e-16, Final residual = 2.73850653873e-61, No Iterations 13
DILUPBiCGStab:  Solving for ILambda_21_0, Initial residual = 1.09396296386e-16, Final residual = 2.3516029369e-61, No Iterations 11
DILUPBiCGStab:  Solving for ILambda_22_0, Initial residual = 1.07623287232e-16, Final residual = 5.84828563735e-61, No Iterations 12
DILUPBiCGStab:  Solving for ILambda_23_0, Initial residual = 1.08139961679e-16, Final residual = 4.03869301995e-61, No Iterations 11
DILUPBiCGStab:  Solving for ILambda_24_0, Initial residual = 1.10987109813e-16, Final residual = 3.26134446144e-63, No Iterations 23
DILUPBiCGStab:  Solving for ILambda_25_0, Initial residual = 1.14927432304e-16, Final residual = 2.66170156557e-61, No Iterations 29
DILUPBiCGStab:  Solving for ILambda_26_0, Initial residual = 1.12088442186e-16, Final residual = 4.15625921749e-62, No Iterations 33
DILUPBiCGStab:  Solving for ILambda_27_0, Initial residual = 1.2036339135e-16, Final residual = 3.39175277557e-61, No Iterations 34
DILUPBiCGStab:  Solving for ILambda_28_0, Initial residual = 1.19648205142e-16, Final residual = 3.81384492703e-61, No Iterations 35
DILUPBiCGStab:  Solving for ILambda_29_0, Initial residual = 1.09728055767e-16, Final residual = 8.16645539366e-61, No Iterations 32
DILUPBiCGStab:  Solving for ILambda_30_0, Initial residual = 1.0796592397e-16, Final residual = 3.67441737914e-61, No Iterations 30
DILUPBiCGStab:  Solving for ILambda_31_0, Initial residual = 1.08531546522e-16, Final residual = 7.0776678253e-61, No Iterations 22
DILUPBiCGStab:  Solving for ILambda_32_0, Initial residual = 4.02429568458e-16, Final residual = 2.81730722825e-63, No Iterations 2
DILUPBiCGStab:  Solving for ILambda_33_0, Initial residual = 4.18125594279e-16, Final residual = 1.98854324696e-63, No Iterations 2
DILUPBiCGStab:  Solving for ILambda_34_0, Initial residual = 4.20812301401e-16, Final residual = 3.43691218445e-63, No Iterations 2
DILUPBiCGStab:  Solving for ILambda_35_0, Initial residual = 4.3105877148e-16, Final residual = 2.62693332421e-62, No Iterations 2
DILUPBiCGStab:  Solving for ILambda_36_0, Initial residual = 4.53346475504e-16, Final residual = 1.73724996204e-63, No Iterations 2
DILUPBiCGStab:  Solving for ILambda_37_0, Initial residual = 4.60830096962e-16, Final residual = 2.82662239591e-63, No Iterations 2
DILUPBiCGStab:  Solving for ILambda_38_0, Initial residual = 4.96464317744e-16, Final residual = 2.61241259407e-63, No Iterations 2
DILUPBiCGStab:  Solving for ILambda_39_0, Initial residual = 4.29688224527e-16, Final residual = 2.7273736755e-63, No Iterations 2
DILUPBiCGStab:  Solving for ILambda_40_0, Initial residual = 3.95304899773e-16, Final residual = 5.74662047927e-61, No Iterations 24
DILUPBiCGStab:  Solving for ILambda_41_0, Initial residual = 4.20105273211e-16, Final residual = 9.04481167166e-61, No Iterations 33
DILUPBiCGStab:  Solving for ILambda_42_0, Initial residual = 4.27273451323e-16, Final residual = 9.060709871e-61, No Iterations 37
DILUPBiCGStab:  Solving for ILambda_43_0, Initial residual = 4.23205319891e-16, Final residual = 2.60955043071e-61, No Iterations 39
DILUPBiCGStab:  Solving for ILambda_44_0, Initial residual = 4.47048485933e-16, Final residual = 8.90612348542e-62, No Iterations 38
DILUPBiCGStab:  Solving for ILambda_45_0, Initial residual = 4.73937311871e-16, Final residual = 3.61220977945e-61, No Iterations 37
DILUPBiCGStab:  Solving for ILambda_46_0, Initial residual = 5.82765266366e-16, Final residual = 6.85339843697e-64, No Iterations 33
DILUPBiCGStab:  Solving for ILambda_47_0, Initial residual = 4.24477970633e-16, Final residual = 5.30024201681e-61, No Iterations 25
DILUPBiCGStab:  Solving for ILambda_48_0, Initial residual = 4.29383658537e-16, Final residual = 3.62106340972e-62, No Iterations 13
DILUPBiCGStab:  Solving for ILambda_49_0, Initial residual = 4.98487506104e-16, Final residual = 1.28826868408e-61, No Iterations 14
DILUPBiCGStab:  Solving for ILambda_50_0, Initial residual = 4.6342978523e-16, Final residual = 1.5491118359e-61, No Iterations 13
DILUPBiCGStab:  Solving for ILambda_51_0, Initial residual = 4.59144106663e-16, Final residual = 2.89909602324e-61, No Iterations 14
DILUPBiCGStab:  Solving for ILambda_52_0, Initial residual = 4.31015262053e-16, Final residual = 3.46609572379e-61, No Iterations 13
DILUPBiCGStab:  Solving for ILambda_53_0, Initial residual = 4.22694084123e-16, Final residual = 5.28294856451e-61, No Iterations 14
DILUPBiCGStab:  Solving for ILambda_54_0, Initial residual = 4.16124160633e-16, Final residual = 4.269038132e-61, No Iterations 13
DILUPBiCGStab:  Solving for ILambda_55_0, Initial residual = 3.95935786466e-16, Final residual = 2.24624916348e-61, No Iterations 14
DILUPBiCGStab:  Solving for ILambda_56_0, Initial residual = 4.14644840112e-16, Final residual = 1.46884171165e-61, No Iterations 25
DILUPBiCGStab:  Solving for ILambda_57_0, Initial residual = 4.97203978005e-16, Final residual = 6.42517347276e-63, No Iterations 33
DILUPBiCGStab:  Solving for ILambda_58_0, Initial residual = 4.65931577288e-16, Final residual = 5.25588313068e-61, No Iterations 36
DILUPBiCGStab:  Solving for ILambda_59_0, Initial residual = 4.38509760868e-16, Final residual = 8.74111241141e-61, No Iterations 38
DILUPBiCGStab:  Solving for ILambda_60_0, Initial residual = 4.36638855503e-16, Final residual = 2.68129095199e-61, No Iterations 40
DILUPBiCGStab:  Solving for ILambda_61_0, Initial residual = 4.23890593368e-16, Final residual = 6.66338785811e-61, No Iterations 37
DILUPBiCGStab:  Solving for ILambda_62_0, Initial residual = 4.2031194299e-16, Final residual = 5.06835104291e-61, No Iterations 33
DILUPBiCGStab:  Solving for ILambda_63_0, Initial residual = 4.01200427143e-16, Final residual = 3.85655427643e-61, No Iterations 24
DILUPBiCGStab:  Solving for ILambda_64_0, Initial residual = 3.42103747806e-16, Final residual = 6.15970032471e-61, No Iterations 15
DILUPBiCGStab:  Solving for ILambda_65_0, Initial residual = 3.75399336882e-16, Final residual = 2.78447416455e-61, No Iterations 15
DILUPBiCGStab:  Solving for ILambda_66_0, Initial residual = 3.93151183133e-16, Final residual = 1.1938388592e-61, No Iterations 14
DILUPBiCGStab:  Solving for ILambda_67_0, Initial residual = 4.09837048419e-16, Final residual = 9.52278153982e-62, No Iterations 14
DILUPBiCGStab:  Solving for ILambda_68_0, Initial residual = 4.10837765242e-16, Final residual = 1.55308459745e-61, No Iterations 14
DILUPBiCGStab:  Solving for ILambda_69_0, Initial residual = 4.55815635491e-16, Final residual = 1.05059020658e-61, No Iterations 13
DILUPBiCGStab:  Solving for ILambda_70_0, Initial residual = 4.50996966441e-16, Final residual = 7.83851704862e-62, No Iterations 14
DILUPBiCGStab:  Solving for ILambda_71_0, Initial residual = 3.70776460255e-16, Final residual = 3.67268403136e-61, No Iterations 14
DILUPBiCGStab:  Solving for ILambda_72_0, Initial residual = 3.35914531803e-16, Final residual = 1.32989120037e-61, No Iterations 25
DILUPBiCGStab:  Solving for ILambda_73_0, Initial residual = 3.74115808783e-16, Final residual = 4.57450853803e-61, No Iterations 32
DILUPBiCGStab:  Solving for ILambda_74_0, Initial residual = 3.83709637455e-16, Final residual = 3.07088280699e-61, No Iterations 37
DILUPBiCGStab:  Solving for ILambda_75_0, Initial residual = 4.0016707825e-16, Final residual = 4.76240964249e-61, No Iterations 38
DILUPBiCGStab:  Solving for ILambda_76_0, Initial residual = 4.14666594826e-16, Final residual = 9.05489837533e-61, No Iterations 39
DILUPBiCGStab:  Solving for ILambda_77_0, Initial residual = 4.55489314788e-16, Final residual = 2.18401355995e-61, No Iterations 37
DILUPBiCGStab:  Solving for ILambda_78_0, Initial residual = 4.84607998864e-16, Final residual = 5.47945517744e-61, No Iterations 32
DILUPBiCGStab:  Solving for ILambda_79_0, Initial residual = 3.79510977742e-16, Final residual = 2.69439595792e-61, No Iterations 25
DILUPBiCGStab:  Solving for ILambda_80_0, Initial residual = 3.88245495229e-16, Final residual = 3.0478800289e-63, No Iterations 2
DILUPBiCGStab:  Solving for ILambda_81_0, Initial residual = 4.83096046272e-16, Final residual = 3.366606095e-63, No Iterations 2
DILUPBiCGStab:  Solving for ILambda_82_0, Initial residual = 4.59938153707e-16, Final residual = 4.24229732958e-63, No Iterations 2
DILUPBiCGStab:  Solving for ILambda_83_0, Initial residual = 4.35931827313e-16, Final residual = 2.03719346001e-63, No Iterations 2
DILUPBiCGStab:  Solving for ILambda_84_0, Initial residual = 4.21943546506e-16, Final residual = 2.16539985421e-63, No Iterations 2
DILUPBiCGStab:  Solving for ILambda_85_0, Initial residual = 3.88539183862e-16, Final residual = 3.01495724312e-63, No Iterations 2
DILUPBiCGStab:  Solving for ILambda_86_0, Initial residual = 3.70711196114e-16, Final residual = 1.74611464711e-63, No Iterations 2
DILUPBiCGStab:  Solving for ILambda_87_0, Initial residual = 3.42266908158e-16, Final residual = 2.0816673642e-63, No Iterations 2
DILUPBiCGStab:  Solving for ILambda_88_0, Initial residual = 3.80446430424e-16, Final residual = 4.45424709752e-61, No Iterations 25
DILUPBiCGStab:  Solving for ILambda_89_0, Initial residual = 4.63266624879e-16, Final residual = 5.3886578668e-61, No Iterations 32
DILUPBiCGStab:  Solving for ILambda_90_0, Initial residual = 4.47603231128e-16, Final residual = 5.69774911614e-62, No Iterations 37
DILUPBiCGStab:  Solving for ILambda_91_0, Initial residual = 4.0434398325e-16, Final residual = 7.00827927145e-61, No Iterations 39
DILUPBiCGStab:  Solving for ILambda_92_0, Initial residual = 4.06628228172e-16, Final residual = 3.91629522569e-62, No Iterations 39
DILUPBiCGStab:  Solving for ILambda_93_0, Initial residual = 3.87038108627e-16, Final residual = 1.52707204171e-61, No Iterations 38
DILUPBiCGStab:  Solving for ILambda_94_0, Initial residual = 3.67741677715e-16, Final residual = 1.22839409852e-61, No Iterations 33
DILUPBiCGStab:  Solving for ILambda_95_0, Initial residual = 3.34282928288e-16, Final residual = 7.16112235985e-61, No Iterations 25
DILUPBiCGStab:  Solving for ILambda_96_0, Initial residual = 1.05988964377e-16, Final residual = 1.60105923013e-61, No Iterations 12
DILUPBiCGStab:  Solving for ILambda_97_0, Initial residual = 1.07582497144e-16, Final residual = 4.3532531e-61, No Iterations 13
DILUPBiCGStab:  Solving for ILambda_98_0, Initial residual = 1.06883626971e-16, Final residual = 1.26931076822e-61, No Iterations 12
DILUPBiCGStab:  Solving for ILambda_99_0, Initial residual = 1.24325468554e-16, Final residual = 9.84579215824e-61, No Iterations 12
DILUPBiCGStab:  Solving for ILambda_100_0, Initial residual = 1.17092026301e-16, Final residual = 2.72701184899e-63, No Iterations 12
DILUPBiCGStab:  Solving for ILambda_101_0, Initial residual = 1.0941533176e-16, Final residual = 2.07150939369e-61, No Iterations 14
DILUPBiCGStab:  Solving for ILambda_102_0, Initial residual = 1.14108911207e-16, Final residual = 1.59782992393e-62, No Iterations 14
DILUPBiCGStab:  Solving for ILambda_103_0, Initial residual = 1.09630159556e-16, Final residual = 2.43999012268e-61, No Iterations 12
DILUPBiCGStab:  Solving for ILambda_104_0, Initial residual = 1.05515799358e-16, Final residual = 2.14879350812e-61, No Iterations 24
DILUPBiCGStab:  Solving for ILambda_105_0, Initial residual = 1.10084289201e-16, Final residual = 5.22615736808e-62, No Iterations 29
DILUPBiCGStab:  Solving for ILambda_106_0, Initial residual = 1.06513796841e-16, Final residual = 6.08513243501e-62, No Iterations 33
DILUPBiCGStab:  Solving for ILambda_107_0, Initial residual = 1.2794218968e-16, Final residual = 8.60456745071e-61, No Iterations 34
DILUPBiCGStab:  Solving for ILambda_108_0, Initial residual = 1.18299412903e-16, Final residual = 5.08943980472e-64, No Iterations 36
DILUPBiCGStab:  Solving for ILambda_109_0, Initial residual = 1.11063251311e-16, Final residual = 5.38443493368e-61, No Iterations 32
DILUPBiCGStab:  Solving for ILambda_110_0, Initial residual = 1.13943031516e-16, Final residual = 6.84550725003e-61, No Iterations 30
DILUPBiCGStab:  Solving for ILambda_111_0, Initial residual = 1.11846420998e-16, Final residual = 4.42136453053e-61, No Iterations 22
DILUPBiCGStab:  Solving for ILambda_112_0, Initial residual = 1.08662074804e-16, Final residual = 4.15368118109e-64, No Iterations 2
DILUPBiCGStab:  Solving for ILambda_113_0, Initial residual = 1.13233283987e-16, Final residual = 4.13719699509e-64, No Iterations 2
DILUPBiCGStab:  Solving for ILambda_114_0, Initial residual = 1.1493830966e-16, Final residual = 3.55626323309e-64, No Iterations 2
DILUPBiCGStab:  Solving for ILambda_115_0, Initial residual = 1.19433377346e-16, Final residual = 2.74448097446e-64, No Iterations 2
DILUPBiCGStab:  Solving for ILambda_116_0, Initial residual = 1.30715915657e-16, Final residual = 3.14848249713e-64, No Iterations 2
DILUPBiCGStab:  Solving for ILambda_117_0, Initial residual = 1.05768697902e-16, Final residual = 3.0787494745e-64, No Iterations 2
DILUPBiCGStab:  Solving for ILambda_118_0, Initial residual = 1.10386135852e-16, Final residual = 3.73840542445e-64, No Iterations 2
DILUPBiCGStab:  Solving for ILambda_119_0, Initial residual = 1.02859004966e-16, Final residual = 3.87581005139e-64, No Iterations 2
DILUPBiCGStab:  Solving for ILambda_120_0, Initial residual = 1.06899943007e-16, Final residual = 7.24192954766e-61, No Iterations 22
DILUPBiCGStab:  Solving for ILambda_121_0, Initial residual = 1.11734928091e-16, Final residual = 1.45938667525e-61, No Iterations 29
DILUPBiCGStab:  Solving for ILambda_122_0, Initial residual = 1.12814505751e-16, Final residual = 3.30810431643e-61, No Iterations 32
DILUPBiCGStab:  Solving for ILambda_123_0, Initial residual = 1.13766274468e-16, Final residual = 6.66918325476e-62, No Iterations 34
DILUPBiCGStab:  Solving for ILambda_124_0, Initial residual = 1.32333922477e-16, Final residual = 9.49059937802e-65, No Iterations 36
DILUPBiCGStab:  Solving for ILambda_125_0, Initial residual = 1.05393429094e-16, Final residual = 1.02676383566e-61, No Iterations 32
DILUPBiCGStab:  Solving for ILambda_126_0, Initial residual = 1.0847172106e-16, Final residual = 5.51266409009e-61, No Iterations 29
DILUPBiCGStab:  Solving for ILambda_127_0, Initial residual = 1.062473016e-16, Final residual = 3.11363102647e-61, No Iterations 23
min/max(T) = 1000, 1000
ExecutionTime = 13.43 s  ClockTime = 14 s

writeObjects writeObjects1.writeObjects write:
    writing object a
    writing object qem
End

