/*---------------------------------------------------------------------------*\
| =========                 |                                                 |
| \\      /  F ield         | OpenFOAM: The Open Source CFD Toolbox           |
|  \\    /   O peration     | Version:  2306                                  |
|   \\  /    A nd           | Website:  www.openfoam.com                      |
|    \\/     M anipulation  |                                                 |
\*---------------------------------------------------------------------------*/
Build  : _fbf00d6b-20230626 OPENFOAM=2306 version=2306
Arch   : "LSB;label=32;scalar=64"
Exec   : fireRADFoam_MaCFP
Date   : Mar 12 2024
Time   : 19:28:08
Host   : pop-os
PID    : 172689
I/O    : uncollated
Case   : /home/rafay/Desktop/Study/Radiative_Heat_Transfer/Local_copy_RHT2324/01_Projects/02_Rafay/Case_1_q1D_SolidAngle/new_case3/th_6-ph_12/tau_10/res_1
nProcs : 1
trapFpe: Floating point exception trapping enabled (FOAM_SIGFPE).
fileModificationChecking : Monitoring run-time modified files using timeStampMaster (fileModificationSkew 5, maxFileModificationPolls 20)
allowSystemOperations : Allowing user-supplied system call operations

// * * * * * * * * * * * * * * * * * * * * * * * * * * * * * * * * * * * * * //
Create time

Create mesh for time = 0


PIMPLE: no residual control data found. Calculations will employ 10 corrector loops

Reading thermophysical properties

Selecting thermodynamics package 
{
    type            hePsiThermo;
    mixture         singleStepReactingMixture;
    transport       sutherland;
    thermo          janaf;
    energy          sensibleEnthalpy;
    equationOfState perfectGas;
    specie          specie;
}

Selecting chemistryReader foamChemistryReader
    elements not defined in "/home/rafay/Desktop/Study/Radiative_Heat_Transfer/Local_copy_RHT2324/01_Projects/02_Rafay/Case_1_q1D_SolidAngle/new_case3/th_6-ph_12/tau_10/res_1/constant/reactions"
Fuel heat of combustion :47168962.4726
stoichiometric air-fuel ratio :14.6914056505
stoichiometric oxygen-fuel ratio :3.42181919285
Maximum products mass concentrations:
    H2O: 0.0818486943001
    CO2: 0.199950099979
    N2: 0.718201205721
Creating component thermo properties:
    multi-component carrier - 6 species
    no liquid components
    no solid components
Creating field rho


Reading field U

Reading/calculating face flux field phi

Selecting radiationModel fvDOM
Selecting absorptionEmissionModel constantAbsorptionEmission
Selecting scatterModel none
Selecting sootModel none
fvDOM : Allocated 288 rays with average orientation:
	I0 : dAve : 	(0.000387488209079 0.00591192763451 0.0163624617374) : omega : 	0.0175372336349 : d : 	(0.0169275754541 0.25826489366 0.965925826289)
	I1 : dAve : 	(0.00115583459655 0.00581077291359 0.0163624617374) : omega : 	0.0175372336349 : d : 	(0.050493090853 0.253845909725 0.965925826289)
	I2 : dAve : 	(0.00190440433361 0.00561019425706 0.0163624617374) : omega : 	0.0175372336349 : d : 	(0.083194655468 0.245083551895 0.965925826289)
	I3 : dAve : 	(0.00262038918453 0.00531362362136 0.0163624617374) : omega : 	0.0175372336349 : d : 	(0.114472736462 0.232127746542 0.965925826289)
	I4 : dAve : 	(0.00329153844998 0.00492613541228 0.0163624617374) : omega : 	0.0175372336349 : d : 	(0.143792157198 0.215200171088 0.965925826289)
	I5 : dAve : 	(0.00390636857998 0.00445435966052 0.0163624617374) : omega : 	0.0175372336349 : d : 	(0.170651254257 0.194590461042 0.965925826289)
	I6 : dAve : 	(0.00445435966052 0.00390636857998 0.0163624617374) : omega : 	0.0175372336349 : d : 	(0.194590461042 0.170651254257 0.965925826289)
	I7 : dAve : 	(0.00492613541228 0.00329153844998 0.0163624617374) : omega : 	0.0175372336349 : d : 	(0.215200171088 0.143792157198 0.965925826289)
	I8 : dAve : 	(0.00531362362136 0.00262038918453 0.0163624617374) : omega : 	0.0175372336349 : d : 	(0.232127746542 0.114472736462 0.965925826289)
	I9 : dAve : 	(0.00561019425706 0.00190440433361 0.0163624617374) : omega : 	0.0175372336349 : d : 	(0.245083551895 0.083194655468 0.965925826289)
	I10 : dAve : 	(0.00581077291359 0.00115583459655 0.0163624617374) : omega : 	0.0175372336349 : d : 	(0.253845909725 0.050493090853 0.965925826289)
	I11 : dAve : 	(0.00591192763451 0.000387488209079 0.0163624617374) : omega : 	0.0175372336349 : d : 	(0.25826489366 0.0169275754541 0.965925826289)
	I12 : dAve : 	(0.00591192763451 -0.000387488209079 0.0163624617374) : omega : 	0.0175372336349 : d : 	(0.25826489366 -0.0169275754541 0.965925826289)
	I13 : dAve : 	(0.00581077291359 -0.00115583459655 0.0163624617374) : omega : 	0.0175372336349 : d : 	(0.253845909725 -0.050493090853 0.965925826289)
	I14 : dAve : 	(0.00561019425706 -0.00190440433361 0.0163624617374) : omega : 	0.0175372336349 : d : 	(0.245083551895 -0.083194655468 0.965925826289)
	I15 : dAve : 	(0.00531362362136 -0.00262038918453 0.0163624617374) : omega : 	0.0175372336349 : d : 	(0.232127746542 -0.114472736462 0.965925826289)
	I16 : dAve : 	(0.00492613541228 -0.00329153844998 0.0163624617374) : omega : 	0.0175372336349 : d : 	(0.215200171088 -0.143792157198 0.965925826289)
	I17 : dAve : 	(0.00445435966052 -0.00390636857998 0.0163624617374) : omega : 	0.0175372336349 : d : 	(0.194590461042 -0.170651254257 0.965925826289)
	I18 : dAve : 	(0.00390636857998 -0.00445435966052 0.0163624617374) : omega : 	0.0175372336349 : d : 	(0.170651254257 -0.194590461042 0.965925826289)
	I19 : dAve : 	(0.00329153844998 -0.00492613541228 0.0163624617374) : omega : 	0.0175372336349 : d : 	(0.143792157198 -0.215200171088 0.965925826289)
	I20 : dAve : 	(0.00262038918453 -0.00531362362136 0.0163624617374) : omega : 	0.0175372336349 : d : 	(0.114472736462 -0.232127746542 0.965925826289)
	I21 : dAve : 	(0.00190440433361 -0.00561019425706 0.0163624617374) : omega : 	0.0175372336349 : d : 	(0.083194655468 -0.245083551895 0.965925826289)
	I22 : dAve : 	(0.00115583459655 -0.00581077291359 0.0163624617374) : omega : 	0.0175372336349 : d : 	(0.050493090853 -0.253845909725 0.965925826289)
	I23 : dAve : 	(0.000387488209079 -0.00591192763451 0.0163624617374) : omega : 	0.0175372336349 : d : 	(0.0169275754541 -0.25826489366 0.965925826289)
	I24 : dAve : 	(-0.000387488209079 -0.00591192763451 0.0163624617374) : omega : 	0.0175372336349 : d : 	(-0.0169275754541 -0.25826489366 0.965925826289)
	I25 : dAve : 	(-0.00115583459655 -0.00581077291359 0.0163624617374) : omega : 	0.0175372336349 : d : 	(-0.050493090853 -0.253845909725 0.965925826289)
	I26 : dAve : 	(-0.00190440433361 -0.00561019425706 0.0163624617374) : omega : 	0.0175372336349 : d : 	(-0.083194655468 -0.245083551895 0.965925826289)
	I27 : dAve : 	(-0.00262038918453 -0.00531362362136 0.0163624617374) : omega : 	0.0175372336349 : d : 	(-0.114472736462 -0.232127746542 0.965925826289)
	I28 : dAve : 	(-0.00329153844998 -0.00492613541228 0.0163624617374) : omega : 	0.0175372336349 : d : 	(-0.143792157198 -0.215200171088 0.965925826289)
	I29 : dAve : 	(-0.00390636857998 -0.00445435966052 0.0163624617374) : omega : 	0.0175372336349 : d : 	(-0.170651254257 -0.194590461042 0.965925826289)
	I30 : dAve : 	(-0.00445435966052 -0.00390636857998 0.0163624617374) : omega : 	0.0175372336349 : d : 	(-0.194590461042 -0.170651254257 0.965925826289)
	I31 : dAve : 	(-0.00492613541228 -0.00329153844998 0.0163624617374) : omega : 	0.0175372336349 : d : 	(-0.215200171088 -0.143792157198 0.965925826289)
	I32 : dAve : 	(-0.00531362362136 -0.00262038918453 0.0163624617374) : omega : 	0.0175372336349 : d : 	(-0.232127746542 -0.114472736462 0.965925826289)
	I33 : dAve : 	(-0.00561019425706 -0.00190440433361 0.0163624617374) : omega : 	0.0175372336349 : d : 	(-0.245083551895 -0.083194655468 0.965925826289)
	I34 : dAve : 	(-0.00581077291359 -0.00115583459655 0.0163624617374) : omega : 	0.0175372336349 : d : 	(-0.253845909725 -0.050493090853 0.965925826289)
	I35 : dAve : 	(-0.00591192763451 -0.000387488209079 0.0163624617374) : omega : 	0.0175372336349 : d : 	(-0.25826489366 -0.0169275754541 0.965925826289)
	I36 : dAve : 	(-0.00591192763451 0.000387488209079 0.0163624617374) : omega : 	0.0175372336349 : d : 	(-0.25826489366 0.0169275754541 0.965925826289)
	I37 : dAve : 	(-0.00581077291359 0.00115583459655 0.0163624617374) : omega : 	0.0175372336349 : d : 	(-0.253845909725 0.050493090853 0.965925826289)
	I38 : dAve : 	(-0.00561019425706 0.00190440433361 0.0163624617374) : omega : 	0.0175372336349 : d : 	(-0.245083551895 0.083194655468 0.965925826289)
	I39 : dAve : 	(-0.00531362362136 0.00262038918453 0.0163624617374) : omega : 	0.0175372336349 : d : 	(-0.232127746542 0.114472736462 0.965925826289)
	I40 : dAve : 	(-0.00492613541228 0.00329153844998 0.0163624617374) : omega : 	0.0175372336349 : d : 	(-0.215200171088 0.143792157198 0.965925826289)
	I41 : dAve : 	(-0.00445435966052 0.00390636857998 0.0163624617374) : omega : 	0.0175372336349 : d : 	(-0.194590461042 0.170651254257 0.965925826289)
	I42 : dAve : 	(-0.00390636857998 0.00445435966052 0.0163624617374) : omega : 	0.0175372336349 : d : 	(-0.170651254257 0.194590461042 0.965925826289)
	I43 : dAve : 	(-0.00329153844998 0.00492613541228 0.0163624617374) : omega : 	0.0175372336349 : d : 	(-0.143792157198 0.215200171088 0.965925826289)
	I44 : dAve : 	(-0.00262038918453 0.00531362362136 0.0163624617374) : omega : 	0.0175372336349 : d : 	(-0.114472736462 0.232127746542 0.965925826289)
	I45 : dAve : 	(-0.00190440433361 0.00561019425706 0.0163624617374) : omega : 	0.0175372336349 : d : 	(-0.083194655468 0.245083551895 0.965925826289)
	I46 : dAve : 	(-0.00115583459655 0.00581077291359 0.0163624617374) : omega : 	0.0175372336349 : d : 	(-0.050493090853 0.253845909725 0.965925826289)
	I47 : dAve : 	(-0.000387488209079 0.00591192763451 0.0163624617374) : omega : 	0.0175372336349 : d : 	(-0.0169275754541 0.25826489366 0.965925826289)
	I48 : dAve : 	(0.00223973005487 0.034171677215 0.0327249234749) : omega : 	0.0479126133149 : d : 	(0.0462469961895 0.70559281129 0.707106781187)
	I49 : dAve : 	(0.00668086776241 0.0335869903436 0.0327249234749) : omega : 	0.0479126133149 : d : 	(0.137949689641 0.693519922661 0.707106781187)
	I50 : dAve : 	(0.0110076939702 0.0324276207555 0.0327249234749) : omega : 	0.0479126133149 : d : 	(0.227292025657 0.669580715876 0.707106781187)
	I51 : dAve : 	(0.0151461754823 0.0307134055855 0.0327249234749) : omega : 	0.0479126133149 : d : 	(0.312745332096 0.634184797399 0.707106781187)
	I52 : dAve : 	(0.0190255017326 0.0284736755306 0.0327249234749) : omega : 	0.0479126133149 : d : 	(0.392847479194 0.58793780121 0.707106781187)
	I53 : dAve : 	(0.0225792963734 0.025746752993 0.0327249234749) : omega : 	0.0479126133149 : d : 	(0.466227897004 0.531631026234 0.707106781187)
	I54 : dAve : 	(0.025746752993 0.0225792963734 0.0327249234749) : omega : 	0.0479126133149 : d : 	(0.531631026234 0.466227897004 0.707106781187)
	I55 : dAve : 	(0.0284736755306 0.0190255017326 0.0327249234749) : omega : 	0.0479126133149 : d : 	(0.58793780121 0.392847479194 0.707106781187)
	I56 : dAve : 	(0.0307134055855 0.0151461754823 0.0327249234749) : omega : 	0.0479126133149 : d : 	(0.634184797399 0.312745332096 0.707106781187)
	I57 : dAve : 	(0.0324276207555 0.0110076939702 0.0327249234749) : omega : 	0.0479126133149 : d : 	(0.669580715876 0.227292025657 0.707106781187)
	I58 : dAve : 	(0.0335869903436 0.00668086776241 0.0327249234749) : omega : 	0.0479126133149 : d : 	(0.693519922661 0.137949689641 0.707106781187)
	I59 : dAve : 	(0.034171677215 0.00223973005487 0.0327249234749) : omega : 	0.0479126133149 : d : 	(0.70559281129 0.0462469961895 0.707106781187)
	I60 : dAve : 	(0.034171677215 -0.00223973005487 0.0327249234749) : omega : 	0.0479126133149 : d : 	(0.70559281129 -0.0462469961895 0.707106781187)
	I61 : dAve : 	(0.0335869903436 -0.00668086776241 0.0327249234749) : omega : 	0.0479126133149 : d : 	(0.693519922661 -0.137949689641 0.707106781187)
	I62 : dAve : 	(0.0324276207555 -0.0110076939702 0.0327249234749) : omega : 	0.0479126133149 : d : 	(0.669580715876 -0.227292025657 0.707106781187)
	I63 : dAve : 	(0.0307134055855 -0.0151461754823 0.0327249234749) : omega : 	0.0479126133149 : d : 	(0.634184797399 -0.312745332096 0.707106781187)
	I64 : dAve : 	(0.0284736755306 -0.0190255017326 0.0327249234749) : omega : 	0.0479126133149 : d : 	(0.58793780121 -0.392847479194 0.707106781187)
	I65 : dAve : 	(0.025746752993 -0.0225792963734 0.0327249234749) : omega : 	0.0479126133149 : d : 	(0.531631026234 -0.466227897004 0.707106781187)
	I66 : dAve : 	(0.0225792963734 -0.025746752993 0.0327249234749) : omega : 	0.0479126133149 : d : 	(0.466227897004 -0.531631026234 0.707106781187)
	I67 : dAve : 	(0.0190255017326 -0.0284736755306 0.0327249234749) : omega : 	0.0479126133149 : d : 	(0.392847479194 -0.58793780121 0.707106781187)
	I68 : dAve : 	(0.0151461754823 -0.0307134055855 0.0327249234749) : omega : 	0.0479126133149 : d : 	(0.312745332096 -0.634184797399 0.707106781187)
	I69 : dAve : 	(0.0110076939702 -0.0324276207555 0.0327249234749) : omega : 	0.0479126133149 : d : 	(0.227292025657 -0.669580715876 0.707106781187)
	I70 : dAve : 	(0.00668086776241 -0.0335869903436 0.0327249234749) : omega : 	0.0479126133149 : d : 	(0.137949689641 -0.693519922661 0.707106781187)
	I71 : dAve : 	(0.00223973005487 -0.034171677215 0.0327249234749) : omega : 	0.0479126133149 : d : 	(0.0462469961895 -0.70559281129 0.707106781187)
	I72 : dAve : 	(-0.00223973005487 -0.034171677215 0.0327249234749) : omega : 	0.0479126133149 : d : 	(-0.0462469961895 -0.70559281129 0.707106781187)
	I73 : dAve : 	(-0.00668086776241 -0.0335869903436 0.0327249234749) : omega : 	0.0479126133149 : d : 	(-0.137949689641 -0.693519922661 0.707106781187)
	I74 : dAve : 	(-0.0110076939702 -0.0324276207555 0.0327249234749) : omega : 	0.0479126133149 : d : 	(-0.227292025657 -0.669580715876 0.707106781187)
	I75 : dAve : 	(-0.0151461754823 -0.0307134055855 0.0327249234749) : omega : 	0.0479126133149 : d : 	(-0.312745332096 -0.634184797399 0.707106781187)
	I76 : dAve : 	(-0.0190255017326 -0.0284736755306 0.0327249234749) : omega : 	0.0479126133149 : d : 	(-0.392847479194 -0.58793780121 0.707106781187)
	I77 : dAve : 	(-0.0225792963734 -0.025746752993 0.0327249234749) : omega : 	0.0479126133149 : d : 	(-0.466227897004 -0.531631026234 0.707106781187)
	I78 : dAve : 	(-0.025746752993 -0.0225792963734 0.0327249234749) : omega : 	0.0479126133149 : d : 	(-0.531631026234 -0.466227897004 0.707106781187)
	I79 : dAve : 	(-0.0284736755306 -0.0190255017326 0.0327249234749) : omega : 	0.0479126133149 : d : 	(-0.58793780121 -0.392847479194 0.707106781187)
	I80 : dAve : 	(-0.0307134055855 -0.0151461754823 0.0327249234749) : omega : 	0.0479126133149 : d : 	(-0.634184797399 -0.312745332096 0.707106781187)
	I81 : dAve : 	(-0.0324276207555 -0.0110076939702 0.0327249234749) : omega : 	0.0479126133149 : d : 	(-0.669580715876 -0.227292025657 0.707106781187)
	I82 : dAve : 	(-0.0335869903436 -0.00668086776241 0.0327249234749) : omega : 	0.0479126133149 : d : 	(-0.693519922661 -0.137949689641 0.707106781187)
	I83 : dAve : 	(-0.034171677215 -0.00223973005487 0.0327249234749) : omega : 	0.0479126133149 : d : 	(-0.70559281129 -0.0462469961895 0.707106781187)
	I84 : dAve : 	(-0.034171677215 0.00223973005487 0.0327249234749) : omega : 	0.0479126133149 : d : 	(-0.70559281129 0.0462469961895 0.707106781187)
	I85 : dAve : 	(-0.0335869903436 0.00668086776241 0.0327249234749) : omega : 	0.0479126133149 : d : 	(-0.693519922661 0.137949689641 0.707106781187)
	I86 : dAve : 	(-0.0324276207555 0.0110076939702 0.0327249234749) : omega : 	0.0479126133149 : d : 	(-0.669580715876 0.227292025657 0.707106781187)
	I87 : dAve : 	(-0.0307134055855 0.0151461754823 0.0327249234749) : omega : 	0.0479126133149 : d : 	(-0.634184797399 0.312745332096 0.707106781187)
	I88 : dAve : 	(-0.0284736755306 0.0190255017326 0.0327249234749) : omega : 	0.0479126133149 : d : 	(-0.58793780121 0.392847479194 0.707106781187)
	I89 : dAve : 	(-0.025746752993 0.0225792963734 0.0327249234749) : omega : 	0.0479126133149 : d : 	(-0.531631026234 0.466227897004 0.707106781187)
	I90 : dAve : 	(-0.0225792963734 0.025746752993 0.0327249234749) : omega : 	0.0479126133149 : d : 	(-0.466227897004 0.531631026234 0.707106781187)
	I91 : dAve : 	(-0.0190255017326 0.0284736755306 0.0327249234749) : omega : 	0.0479126133149 : d : 	(-0.392847479194 0.58793780121 0.707106781187)
	I92 : dAve : 	(-0.0151461754823 0.0307134055855 0.0327249234749) : omega : 	0.0479126133149 : d : 	(-0.312745332096 0.634184797399 0.707106781187)
	I93 : dAve : 	(-0.0110076939702 0.0324276207555 0.0327249234749) : omega : 	0.0479126133149 : d : 	(-0.227292025657 0.669580715876 0.707106781187)
	I94 : dAve : 	(-0.00668086776241 0.0335869903436 0.0327249234749) : omega : 	0.0479126133149 : d : 	(-0.137949689641 0.693519922661 0.707106781187)
	I95 : dAve : 	(-0.00223973005487 0.034171677215 0.0327249234749) : omega : 	0.0479126133149 : d : 	(-0.0462469961895 0.70559281129 0.707106781187)
	I96 : dAve : 	(0.00409197190067 0.0624314267954 0.0163624617374) : omega : 	0.0654498469498 : d : 	(0.0631745716435 0.963857704949 0.258819045103)
	I97 : dAve : 	(0.0122059009283 0.0613632077737 0.0163624617374) : omega : 	0.0654498469498 : d : 	(0.188442780494 0.947365832386 0.258819045103)
	I98 : dAve : 	(0.0201109836069 0.0592450472539 0.0163624617374) : omega : 	0.0654498469498 : d : 	(0.310486681125 0.914664267771 0.258819045103)
	I99 : dAve : 	(0.0276719617802 0.0561131875497 0.0163624617374) : omega : 	0.0654498469498 : d : 	(0.427218068558 0.866312543941 0.258819045103)
	I100 : dAve : 	(0.0347594650153 0.052021215649 0.0163624617374) : omega : 	0.0654498469498 : d : 	(0.536639636391 0.803137972298 0.258819045103)
	I101 : dAve : 	(0.0412522241668 0.0470391463256 0.0163624617374) : omega : 	0.0654498469498 : d : 	(0.636879151261 0.726221487276 0.258819045103)
	I102 : dAve : 	(0.0470391463256 0.0412522241668 0.0163624617374) : omega : 	0.0654498469498 : d : 	(0.726221487276 0.636879151261 0.258819045103)
	I103 : dAve : 	(0.052021215649 0.0347594650153 0.0163624617374) : omega : 	0.0654498469498 : d : 	(0.803137972298 0.536639636391 0.258819045103)
	I104 : dAve : 	(0.0561131875497 0.0276719617802 0.0163624617374) : omega : 	0.0654498469498 : d : 	(0.866312543941 0.427218068558 0.258819045103)
	I105 : dAve : 	(0.0592450472539 0.0201109836069 0.0163624617374) : omega : 	0.0654498469498 : d : 	(0.914664267771 0.310486681125 0.258819045103)
	I106 : dAve : 	(0.0613632077737 0.0122059009283 0.0163624617374) : omega : 	0.0654498469498 : d : 	(0.947365832386 0.188442780494 0.258819045103)
	I107 : dAve : 	(0.0624314267954 0.00409197190067 0.0163624617374) : omega : 	0.0654498469498 : d : 	(0.963857704949 0.0631745716435 0.258819045103)
	I108 : dAve : 	(0.0624314267954 -0.00409197190067 0.0163624617374) : omega : 	0.0654498469498 : d : 	(0.963857704949 -0.0631745716435 0.258819045103)
	I109 : dAve : 	(0.0613632077737 -0.0122059009283 0.0163624617374) : omega : 	0.0654498469498 : d : 	(0.947365832386 -0.188442780494 0.258819045103)
	I110 : dAve : 	(0.0592450472539 -0.0201109836069 0.0163624617374) : omega : 	0.0654498469498 : d : 	(0.914664267771 -0.310486681125 0.258819045103)
	I111 : dAve : 	(0.0561131875497 -0.0276719617802 0.0163624617374) : omega : 	0.0654498469498 : d : 	(0.866312543941 -0.427218068558 0.258819045103)
	I112 : dAve : 	(0.052021215649 -0.0347594650153 0.0163624617374) : omega : 	0.0654498469498 : d : 	(0.803137972298 -0.536639636391 0.258819045103)
	I113 : dAve : 	(0.0470391463256 -0.0412522241668 0.0163624617374) : omega : 	0.0654498469498 : d : 	(0.726221487276 -0.636879151261 0.258819045103)
	I114 : dAve : 	(0.0412522241668 -0.0470391463256 0.0163624617374) : omega : 	0.0654498469498 : d : 	(0.636879151261 -0.726221487276 0.258819045103)
	I115 : dAve : 	(0.0347594650153 -0.052021215649 0.0163624617374) : omega : 	0.0654498469498 : d : 	(0.536639636391 -0.803137972298 0.258819045103)
	I116 : dAve : 	(0.0276719617802 -0.0561131875497 0.0163624617374) : omega : 	0.0654498469498 : d : 	(0.427218068558 -0.866312543941 0.258819045103)
	I117 : dAve : 	(0.0201109836069 -0.0592450472539 0.0163624617374) : omega : 	0.0654498469498 : d : 	(0.310486681125 -0.914664267771 0.258819045103)
	I118 : dAve : 	(0.0122059009283 -0.0613632077737 0.0163624617374) : omega : 	0.0654498469498 : d : 	(0.188442780494 -0.947365832386 0.258819045103)
	I119 : dAve : 	(0.00409197190067 -0.0624314267954 0.0163624617374) : omega : 	0.0654498469498 : d : 	(0.0631745716435 -0.963857704949 0.258819045103)
	I120 : dAve : 	(-0.00409197190067 -0.0624314267954 0.0163624617374) : omega : 	0.0654498469498 : d : 	(-0.0631745716435 -0.963857704949 0.258819045103)
	I121 : dAve : 	(-0.0122059009283 -0.0613632077737 0.0163624617374) : omega : 	0.0654498469498 : d : 	(-0.188442780494 -0.947365832386 0.258819045103)
	I122 : dAve : 	(-0.0201109836069 -0.0592450472539 0.0163624617374) : omega : 	0.0654498469498 : d : 	(-0.310486681125 -0.914664267771 0.258819045103)
	I123 : dAve : 	(-0.0276719617802 -0.0561131875497 0.0163624617374) : omega : 	0.0654498469498 : d : 	(-0.427218068558 -0.866312543941 0.258819045103)
	I124 : dAve : 	(-0.0347594650153 -0.052021215649 0.0163624617374) : omega : 	0.0654498469498 : d : 	(-0.536639636391 -0.803137972298 0.258819045103)
	I125 : dAve : 	(-0.0412522241668 -0.0470391463256 0.0163624617374) : omega : 	0.0654498469498 : d : 	(-0.636879151261 -0.726221487276 0.258819045103)
	I126 : dAve : 	(-0.0470391463256 -0.0412522241668 0.0163624617374) : omega : 	0.0654498469498 : d : 	(-0.726221487276 -0.636879151261 0.258819045103)
	I127 : dAve : 	(-0.052021215649 -0.0347594650153 0.0163624617374) : omega : 	0.0654498469498 : d : 	(-0.803137972298 -0.536639636391 0.258819045103)
	I128 : dAve : 	(-0.0561131875497 -0.0276719617802 0.0163624617374) : omega : 	0.0654498469498 : d : 	(-0.866312543941 -0.427218068558 0.258819045103)
	I129 : dAve : 	(-0.0592450472539 -0.0201109836069 0.0163624617374) : omega : 	0.0654498469498 : d : 	(-0.914664267771 -0.310486681125 0.258819045103)
	I130 : dAve : 	(-0.0613632077737 -0.0122059009283 0.0163624617374) : omega : 	0.0654498469498 : d : 	(-0.947365832386 -0.188442780494 0.258819045103)
	I131 : dAve : 	(-0.0624314267954 -0.00409197190067 0.0163624617374) : omega : 	0.0654498469498 : d : 	(-0.963857704949 -0.0631745716435 0.258819045103)
	I132 : dAve : 	(-0.0624314267954 0.00409197190067 0.0163624617374) : omega : 	0.0654498469498 : d : 	(-0.963857704949 0.0631745716435 0.258819045103)
	I133 : dAve : 	(-0.0613632077737 0.0122059009283 0.0163624617374) : omega : 	0.0654498469498 : d : 	(-0.947365832386 0.188442780494 0.258819045103)
	I134 : dAve : 	(-0.0592450472539 0.0201109836069 0.0163624617374) : omega : 	0.0654498469498 : d : 	(-0.914664267771 0.310486681125 0.258819045103)
	I135 : dAve : 	(-0.0561131875497 0.0276719617802 0.0163624617374) : omega : 	0.0654498469498 : d : 	(-0.866312543941 0.427218068558 0.258819045103)
	I136 : dAve : 	(-0.052021215649 0.0347594650153 0.0163624617374) : omega : 	0.0654498469498 : d : 	(-0.803137972298 0.536639636391 0.258819045103)
	I137 : dAve : 	(-0.0470391463256 0.0412522241668 0.0163624617374) : omega : 	0.0654498469498 : d : 	(-0.726221487276 0.636879151261 0.258819045103)
	I138 : dAve : 	(-0.0412522241668 0.0470391463256 0.0163624617374) : omega : 	0.0654498469498 : d : 	(-0.636879151261 0.726221487276 0.258819045103)
	I139 : dAve : 	(-0.0347594650153 0.052021215649 0.0163624617374) : omega : 	0.0654498469498 : d : 	(-0.536639636391 0.803137972298 0.258819045103)
	I140 : dAve : 	(-0.0276719617802 0.0561131875497 0.0163624617374) : omega : 	0.0654498469498 : d : 	(-0.427218068558 0.866312543941 0.258819045103)
	I141 : dAve : 	(-0.0201109836069 0.0592450472539 0.0163624617374) : omega : 	0.0654498469498 : d : 	(-0.310486681125 0.914664267771 0.258819045103)
	I142 : dAve : 	(-0.0122059009283 0.0613632077737 0.0163624617374) : omega : 	0.0654498469498 : d : 	(-0.188442780494 0.947365832386 0.258819045103)
	I143 : dAve : 	(-0.00409197190067 0.0624314267954 0.0163624617374) : omega : 	0.0654498469498 : d : 	(-0.0631745716435 0.963857704949 0.258819045103)
	I144 : dAve : 	(0.00409197190067 0.0624314267954 -0.0163624617374) : omega : 	0.0654498469498 : d : 	(0.0631745716435 0.963857704949 -0.258819045103)
	I145 : dAve : 	(0.0122059009283 0.0613632077737 -0.0163624617374) : omega : 	0.0654498469498 : d : 	(0.188442780494 0.947365832386 -0.258819045103)
	I146 : dAve : 	(0.0201109836069 0.0592450472539 -0.0163624617374) : omega : 	0.0654498469498 : d : 	(0.310486681125 0.914664267771 -0.258819045103)
	I147 : dAve : 	(0.0276719617802 0.0561131875497 -0.0163624617374) : omega : 	0.0654498469498 : d : 	(0.427218068558 0.866312543941 -0.258819045103)
	I148 : dAve : 	(0.0347594650153 0.052021215649 -0.0163624617374) : omega : 	0.0654498469498 : d : 	(0.536639636391 0.803137972298 -0.258819045103)
	I149 : dAve : 	(0.0412522241668 0.0470391463256 -0.0163624617374) : omega : 	0.0654498469498 : d : 	(0.636879151261 0.726221487276 -0.258819045103)
	I150 : dAve : 	(0.0470391463256 0.0412522241668 -0.0163624617374) : omega : 	0.0654498469498 : d : 	(0.726221487276 0.636879151261 -0.258819045103)
	I151 : dAve : 	(0.052021215649 0.0347594650153 -0.0163624617374) : omega : 	0.0654498469498 : d : 	(0.803137972298 0.536639636391 -0.258819045103)
	I152 : dAve : 	(0.0561131875497 0.0276719617802 -0.0163624617374) : omega : 	0.0654498469498 : d : 	(0.866312543941 0.427218068558 -0.258819045103)
	I153 : dAve : 	(0.0592450472539 0.0201109836069 -0.0163624617374) : omega : 	0.0654498469498 : d : 	(0.914664267771 0.310486681125 -0.258819045103)
	I154 : dAve : 	(0.0613632077737 0.0122059009283 -0.0163624617374) : omega : 	0.0654498469498 : d : 	(0.947365832386 0.188442780494 -0.258819045103)
	I155 : dAve : 	(0.0624314267954 0.00409197190067 -0.0163624617374) : omega : 	0.0654498469498 : d : 	(0.963857704949 0.0631745716435 -0.258819045103)
	I156 : dAve : 	(0.0624314267954 -0.00409197190067 -0.0163624617374) : omega : 	0.0654498469498 : d : 	(0.963857704949 -0.0631745716435 -0.258819045103)
	I157 : dAve : 	(0.0613632077737 -0.0122059009283 -0.0163624617374) : omega : 	0.0654498469498 : d : 	(0.947365832386 -0.188442780494 -0.258819045103)
	I158 : dAve : 	(0.0592450472539 -0.0201109836069 -0.0163624617374) : omega : 	0.0654498469498 : d : 	(0.914664267771 -0.310486681125 -0.258819045103)
	I159 : dAve : 	(0.0561131875497 -0.0276719617802 -0.0163624617374) : omega : 	0.0654498469498 : d : 	(0.866312543941 -0.427218068558 -0.258819045103)
	I160 : dAve : 	(0.052021215649 -0.0347594650153 -0.0163624617374) : omega : 	0.0654498469498 : d : 	(0.803137972298 -0.536639636391 -0.258819045103)
	I161 : dAve : 	(0.0470391463256 -0.0412522241668 -0.0163624617374) : omega : 	0.0654498469498 : d : 	(0.726221487276 -0.636879151261 -0.258819045103)
	I162 : dAve : 	(0.0412522241668 -0.0470391463256 -0.0163624617374) : omega : 	0.0654498469498 : d : 	(0.636879151261 -0.726221487276 -0.258819045103)
	I163 : dAve : 	(0.0347594650153 -0.052021215649 -0.0163624617374) : omega : 	0.0654498469498 : d : 	(0.536639636391 -0.803137972298 -0.258819045103)
	I164 : dAve : 	(0.0276719617802 -0.0561131875497 -0.0163624617374) : omega : 	0.0654498469498 : d : 	(0.427218068558 -0.866312543941 -0.258819045103)
	I165 : dAve : 	(0.0201109836069 -0.0592450472539 -0.0163624617374) : omega : 	0.0654498469498 : d : 	(0.310486681125 -0.914664267771 -0.258819045103)
	I166 : dAve : 	(0.0122059009283 -0.0613632077737 -0.0163624617374) : omega : 	0.0654498469498 : d : 	(0.188442780494 -0.947365832386 -0.258819045103)
	I167 : dAve : 	(0.00409197190067 -0.0624314267954 -0.0163624617374) : omega : 	0.0654498469498 : d : 	(0.0631745716435 -0.963857704949 -0.258819045103)
	I168 : dAve : 	(-0.00409197190067 -0.0624314267954 -0.0163624617374) : omega : 	0.0654498469498 : d : 	(-0.0631745716435 -0.963857704949 -0.258819045103)
	I169 : dAve : 	(-0.0122059009283 -0.0613632077737 -0.0163624617374) : omega : 	0.0654498469498 : d : 	(-0.188442780494 -0.947365832386 -0.258819045103)
	I170 : dAve : 	(-0.0201109836069 -0.0592450472539 -0.0163624617374) : omega : 	0.0654498469498 : d : 	(-0.310486681125 -0.914664267771 -0.258819045103)
	I171 : dAve : 	(-0.0276719617802 -0.0561131875497 -0.0163624617374) : omega : 	0.0654498469498 : d : 	(-0.427218068558 -0.866312543941 -0.258819045103)
	I172 : dAve : 	(-0.0347594650153 -0.052021215649 -0.0163624617374) : omega : 	0.0654498469498 : d : 	(-0.536639636391 -0.803137972298 -0.258819045103)
	I173 : dAve : 	(-0.0412522241668 -0.0470391463256 -0.0163624617374) : omega : 	0.0654498469498 : d : 	(-0.636879151261 -0.726221487276 -0.258819045103)
	I174 : dAve : 	(-0.0470391463256 -0.0412522241668 -0.0163624617374) : omega : 	0.0654498469498 : d : 	(-0.726221487276 -0.636879151261 -0.258819045103)
	I175 : dAve : 	(-0.052021215649 -0.0347594650153 -0.0163624617374) : omega : 	0.0654498469498 : d : 	(-0.803137972298 -0.536639636391 -0.258819045103)
	I176 : dAve : 	(-0.0561131875497 -0.0276719617802 -0.0163624617374) : omega : 	0.0654498469498 : d : 	(-0.866312543941 -0.427218068558 -0.258819045103)
	I177 : dAve : 	(-0.0592450472539 -0.0201109836069 -0.0163624617374) : omega : 	0.0654498469498 : d : 	(-0.914664267771 -0.310486681125 -0.258819045103)
	I178 : dAve : 	(-0.0613632077737 -0.0122059009283 -0.0163624617374) : omega : 	0.0654498469498 : d : 	(-0.947365832386 -0.188442780494 -0.258819045103)
	I179 : dAve : 	(-0.0624314267954 -0.00409197190067 -0.0163624617374) : omega : 	0.0654498469498 : d : 	(-0.963857704949 -0.0631745716435 -0.258819045103)
	I180 : dAve : 	(-0.0624314267954 0.00409197190067 -0.0163624617374) : omega : 	0.0654498469498 : d : 	(-0.963857704949 0.0631745716435 -0.258819045103)
	I181 : dAve : 	(-0.0613632077737 0.0122059009283 -0.0163624617374) : omega : 	0.0654498469498 : d : 	(-0.947365832386 0.188442780494 -0.258819045103)
	I182 : dAve : 	(-0.0592450472539 0.0201109836069 -0.0163624617374) : omega : 	0.0654498469498 : d : 	(-0.914664267771 0.310486681125 -0.258819045103)
	I183 : dAve : 	(-0.0561131875497 0.0276719617802 -0.0163624617374) : omega : 	0.0654498469498 : d : 	(-0.866312543941 0.427218068558 -0.258819045103)
	I184 : dAve : 	(-0.052021215649 0.0347594650153 -0.0163624617374) : omega : 	0.0654498469498 : d : 	(-0.803137972298 0.536639636391 -0.258819045103)
	I185 : dAve : 	(-0.0470391463256 0.0412522241668 -0.0163624617374) : omega : 	0.0654498469498 : d : 	(-0.726221487276 0.636879151261 -0.258819045103)
	I186 : dAve : 	(-0.0412522241668 0.0470391463256 -0.0163624617374) : omega : 	0.0654498469498 : d : 	(-0.636879151261 0.726221487276 -0.258819045103)
	I187 : dAve : 	(-0.0347594650153 0.052021215649 -0.0163624617374) : omega : 	0.0654498469498 : d : 	(-0.536639636391 0.803137972298 -0.258819045103)
	I188 : dAve : 	(-0.0276719617802 0.0561131875497 -0.0163624617374) : omega : 	0.0654498469498 : d : 	(-0.427218068558 0.866312543941 -0.258819045103)
	I189 : dAve : 	(-0.0201109836069 0.0592450472539 -0.0163624617374) : omega : 	0.0654498469498 : d : 	(-0.310486681125 0.914664267771 -0.258819045103)
	I190 : dAve : 	(-0.0122059009283 0.0613632077737 -0.0163624617374) : omega : 	0.0654498469498 : d : 	(-0.188442780494 0.947365832386 -0.258819045103)
	I191 : dAve : 	(-0.00409197190067 0.0624314267954 -0.0163624617374) : omega : 	0.0654498469498 : d : 	(-0.0631745716435 0.963857704949 -0.258819045103)
	I192 : dAve : 	(0.00223973005487 0.034171677215 -0.0327249234749) : omega : 	0.0479126133149 : d : 	(0.0462469961895 0.70559281129 -0.707106781187)
	I193 : dAve : 	(0.00668086776241 0.0335869903436 -0.0327249234749) : omega : 	0.0479126133149 : d : 	(0.137949689641 0.693519922661 -0.707106781187)
	I194 : dAve : 	(0.0110076939702 0.0324276207555 -0.0327249234749) : omega : 	0.0479126133149 : d : 	(0.227292025657 0.669580715876 -0.707106781187)
	I195 : dAve : 	(0.0151461754823 0.0307134055855 -0.0327249234749) : omega : 	0.0479126133149 : d : 	(0.312745332096 0.634184797399 -0.707106781187)
	I196 : dAve : 	(0.0190255017326 0.0284736755306 -0.0327249234749) : omega : 	0.0479126133149 : d : 	(0.392847479194 0.58793780121 -0.707106781187)
	I197 : dAve : 	(0.0225792963734 0.025746752993 -0.0327249234749) : omega : 	0.0479126133149 : d : 	(0.466227897004 0.531631026234 -0.707106781187)
	I198 : dAve : 	(0.025746752993 0.0225792963734 -0.0327249234749) : omega : 	0.0479126133149 : d : 	(0.531631026234 0.466227897004 -0.707106781187)
	I199 : dAve : 	(0.0284736755306 0.0190255017326 -0.0327249234749) : omega : 	0.0479126133149 : d : 	(0.58793780121 0.392847479194 -0.707106781187)
	I200 : dAve : 	(0.0307134055855 0.0151461754823 -0.0327249234749) : omega : 	0.0479126133149 : d : 	(0.634184797399 0.312745332096 -0.707106781187)
	I201 : dAve : 	(0.0324276207555 0.0110076939702 -0.0327249234749) : omega : 	0.0479126133149 : d : 	(0.669580715876 0.227292025657 -0.707106781187)
	I202 : dAve : 	(0.0335869903436 0.00668086776241 -0.0327249234749) : omega : 	0.0479126133149 : d : 	(0.693519922661 0.137949689641 -0.707106781187)
	I203 : dAve : 	(0.034171677215 0.00223973005487 -0.0327249234749) : omega : 	0.0479126133149 : d : 	(0.70559281129 0.0462469961895 -0.707106781187)
	I204 : dAve : 	(0.034171677215 -0.00223973005487 -0.0327249234749) : omega : 	0.0479126133149 : d : 	(0.70559281129 -0.0462469961895 -0.707106781187)
	I205 : dAve : 	(0.0335869903436 -0.00668086776241 -0.0327249234749) : omega : 	0.0479126133149 : d : 	(0.693519922661 -0.137949689641 -0.707106781187)
	I206 : dAve : 	(0.0324276207555 -0.0110076939702 -0.0327249234749) : omega : 	0.0479126133149 : d : 	(0.669580715876 -0.227292025657 -0.707106781187)
	I207 : dAve : 	(0.0307134055855 -0.0151461754823 -0.0327249234749) : omega : 	0.0479126133149 : d : 	(0.634184797399 -0.312745332096 -0.707106781187)
	I208 : dAve : 	(0.0284736755306 -0.0190255017326 -0.0327249234749) : omega : 	0.0479126133149 : d : 	(0.58793780121 -0.392847479194 -0.707106781187)
	I209 : dAve : 	(0.025746752993 -0.0225792963734 -0.0327249234749) : omega : 	0.0479126133149 : d : 	(0.531631026234 -0.466227897004 -0.707106781187)
	I210 : dAve : 	(0.0225792963734 -0.025746752993 -0.0327249234749) : omega : 	0.0479126133149 : d : 	(0.466227897004 -0.531631026234 -0.707106781187)
	I211 : dAve : 	(0.0190255017326 -0.0284736755306 -0.0327249234749) : omega : 	0.0479126133149 : d : 	(0.392847479194 -0.58793780121 -0.707106781187)
	I212 : dAve : 	(0.0151461754823 -0.0307134055855 -0.0327249234749) : omega : 	0.0479126133149 : d : 	(0.312745332096 -0.634184797399 -0.707106781187)
	I213 : dAve : 	(0.0110076939702 -0.0324276207555 -0.0327249234749) : omega : 	0.0479126133149 : d : 	(0.227292025657 -0.669580715876 -0.707106781187)
	I214 : dAve : 	(0.00668086776241 -0.0335869903436 -0.0327249234749) : omega : 	0.0479126133149 : d : 	(0.137949689641 -0.693519922661 -0.707106781187)
	I215 : dAve : 	(0.00223973005487 -0.034171677215 -0.0327249234749) : omega : 	0.0479126133149 : d : 	(0.0462469961895 -0.70559281129 -0.707106781187)
	I216 : dAve : 	(-0.00223973005487 -0.034171677215 -0.0327249234749) : omega : 	0.0479126133149 : d : 	(-0.0462469961895 -0.70559281129 -0.707106781187)
	I217 : dAve : 	(-0.00668086776241 -0.0335869903436 -0.0327249234749) : omega : 	0.0479126133149 : d : 	(-0.137949689641 -0.693519922661 -0.707106781187)
	I218 : dAve : 	(-0.0110076939702 -0.0324276207555 -0.0327249234749) : omega : 	0.0479126133149 : d : 	(-0.227292025657 -0.669580715876 -0.707106781187)
	I219 : dAve : 	(-0.0151461754823 -0.0307134055855 -0.0327249234749) : omega : 	0.0479126133149 : d : 	(-0.312745332096 -0.634184797399 -0.707106781187)
	I220 : dAve : 	(-0.0190255017326 -0.0284736755306 -0.0327249234749) : omega : 	0.0479126133149 : d : 	(-0.392847479194 -0.58793780121 -0.707106781187)
	I221 : dAve : 	(-0.0225792963734 -0.025746752993 -0.0327249234749) : omega : 	0.0479126133149 : d : 	(-0.466227897004 -0.531631026234 -0.707106781187)
	I222 : dAve : 	(-0.025746752993 -0.0225792963734 -0.0327249234749) : omega : 	0.0479126133149 : d : 	(-0.531631026234 -0.466227897004 -0.707106781187)
	I223 : dAve : 	(-0.0284736755306 -0.0190255017326 -0.0327249234749) : omega : 	0.0479126133149 : d : 	(-0.58793780121 -0.392847479194 -0.707106781187)
	I224 : dAve : 	(-0.0307134055855 -0.0151461754823 -0.0327249234749) : omega : 	0.0479126133149 : d : 	(-0.634184797399 -0.312745332096 -0.707106781187)
	I225 : dAve : 	(-0.0324276207555 -0.0110076939702 -0.0327249234749) : omega : 	0.0479126133149 : d : 	(-0.669580715876 -0.227292025657 -0.707106781187)
	I226 : dAve : 	(-0.0335869903436 -0.00668086776241 -0.0327249234749) : omega : 	0.0479126133149 : d : 	(-0.693519922661 -0.137949689641 -0.707106781187)
	I227 : dAve : 	(-0.034171677215 -0.00223973005487 -0.0327249234749) : omega : 	0.0479126133149 : d : 	(-0.70559281129 -0.0462469961895 -0.707106781187)
	I228 : dAve : 	(-0.034171677215 0.00223973005487 -0.0327249234749) : omega : 	0.0479126133149 : d : 	(-0.70559281129 0.0462469961895 -0.707106781187)
	I229 : dAve : 	(-0.0335869903436 0.00668086776241 -0.0327249234749) : omega : 	0.0479126133149 : d : 	(-0.693519922661 0.137949689641 -0.707106781187)
	I230 : dAve : 	(-0.0324276207555 0.0110076939702 -0.0327249234749) : omega : 	0.0479126133149 : d : 	(-0.669580715876 0.227292025657 -0.707106781187)
	I231 : dAve : 	(-0.0307134055855 0.0151461754823 -0.0327249234749) : omega : 	0.0479126133149 : d : 	(-0.634184797399 0.312745332096 -0.707106781187)
	I232 : dAve : 	(-0.0284736755306 0.0190255017326 -0.0327249234749) : omega : 	0.0479126133149 : d : 	(-0.58793780121 0.392847479194 -0.707106781187)
	I233 : dAve : 	(-0.025746752993 0.0225792963734 -0.0327249234749) : omega : 	0.0479126133149 : d : 	(-0.531631026234 0.466227897004 -0.707106781187)
	I234 : dAve : 	(-0.0225792963734 0.025746752993 -0.0327249234749) : omega : 	0.0479126133149 : d : 	(-0.466227897004 0.531631026234 -0.707106781187)
	I235 : dAve : 	(-0.0190255017326 0.0284736755306 -0.0327249234749) : omega : 	0.0479126133149 : d : 	(-0.392847479194 0.58793780121 -0.707106781187)
	I236 : dAve : 	(-0.0151461754823 0.0307134055855 -0.0327249234749) : omega : 	0.0479126133149 : d : 	(-0.312745332096 0.634184797399 -0.707106781187)
	I237 : dAve : 	(-0.0110076939702 0.0324276207555 -0.0327249234749) : omega : 	0.0479126133149 : d : 	(-0.227292025657 0.669580715876 -0.707106781187)
	I238 : dAve : 	(-0.00668086776241 0.0335869903436 -0.0327249234749) : omega : 	0.0479126133149 : d : 	(-0.137949689641 0.693519922661 -0.707106781187)
	I239 : dAve : 	(-0.00223973005487 0.034171677215 -0.0327249234749) : omega : 	0.0479126133149 : d : 	(-0.0462469961895 0.70559281129 -0.707106781187)
	I240 : dAve : 	(0.000387488209079 0.00591192763451 -0.0163624617374) : omega : 	0.0175372336349 : d : 	(0.0169275754541 0.25826489366 -0.965925826289)
	I241 : dAve : 	(0.00115583459655 0.00581077291359 -0.0163624617374) : omega : 	0.0175372336349 : d : 	(0.050493090853 0.253845909725 -0.965925826289)
	I242 : dAve : 	(0.00190440433361 0.00561019425706 -0.0163624617374) : omega : 	0.0175372336349 : d : 	(0.083194655468 0.245083551895 -0.965925826289)
	I243 : dAve : 	(0.00262038918453 0.00531362362136 -0.0163624617374) : omega : 	0.0175372336349 : d : 	(0.114472736462 0.232127746542 -0.965925826289)
	I244 : dAve : 	(0.00329153844998 0.00492613541228 -0.0163624617374) : omega : 	0.0175372336349 : d : 	(0.143792157198 0.215200171088 -0.965925826289)
	I245 : dAve : 	(0.00390636857998 0.00445435966052 -0.0163624617374) : omega : 	0.0175372336349 : d : 	(0.170651254257 0.194590461042 -0.965925826289)
	I246 : dAve : 	(0.00445435966052 0.00390636857998 -0.0163624617374) : omega : 	0.0175372336349 : d : 	(0.194590461042 0.170651254257 -0.965925826289)
	I247 : dAve : 	(0.00492613541228 0.00329153844998 -0.0163624617374) : omega : 	0.0175372336349 : d : 	(0.215200171088 0.143792157198 -0.965925826289)
	I248 : dAve : 	(0.00531362362136 0.00262038918453 -0.0163624617374) : omega : 	0.0175372336349 : d : 	(0.232127746542 0.114472736462 -0.965925826289)
	I249 : dAve : 	(0.00561019425706 0.00190440433361 -0.0163624617374) : omega : 	0.0175372336349 : d : 	(0.245083551895 0.083194655468 -0.965925826289)
	I250 : dAve : 	(0.00581077291359 0.00115583459655 -0.0163624617374) : omega : 	0.0175372336349 : d : 	(0.253845909725 0.050493090853 -0.965925826289)
	I251 : dAve : 	(0.00591192763451 0.000387488209079 -0.0163624617374) : omega : 	0.0175372336349 : d : 	(0.25826489366 0.0169275754541 -0.965925826289)
	I252 : dAve : 	(0.00591192763451 -0.000387488209079 -0.0163624617374) : omega : 	0.0175372336349 : d : 	(0.25826489366 -0.0169275754541 -0.965925826289)
	I253 : dAve : 	(0.00581077291359 -0.00115583459655 -0.0163624617374) : omega : 	0.0175372336349 : d : 	(0.253845909725 -0.050493090853 -0.965925826289)
	I254 : dAve : 	(0.00561019425706 -0.00190440433361 -0.0163624617374) : omega : 	0.0175372336349 : d : 	(0.245083551895 -0.083194655468 -0.965925826289)
	I255 : dAve : 	(0.00531362362136 -0.00262038918453 -0.0163624617374) : omega : 	0.0175372336349 : d : 	(0.232127746542 -0.114472736462 -0.965925826289)
	I256 : dAve : 	(0.00492613541228 -0.00329153844998 -0.0163624617374) : omega : 	0.0175372336349 : d : 	(0.215200171088 -0.143792157198 -0.965925826289)
	I257 : dAve : 	(0.00445435966052 -0.00390636857998 -0.0163624617374) : omega : 	0.0175372336349 : d : 	(0.194590461042 -0.170651254257 -0.965925826289)
	I258 : dAve : 	(0.00390636857998 -0.00445435966052 -0.0163624617374) : omega : 	0.0175372336349 : d : 	(0.170651254257 -0.194590461042 -0.965925826289)
	I259 : dAve : 	(0.00329153844998 -0.00492613541228 -0.0163624617374) : omega : 	0.0175372336349 : d : 	(0.143792157198 -0.215200171088 -0.965925826289)
	I260 : dAve : 	(0.00262038918453 -0.00531362362136 -0.0163624617374) : omega : 	0.0175372336349 : d : 	(0.114472736462 -0.232127746542 -0.965925826289)
	I261 : dAve : 	(0.00190440433361 -0.00561019425706 -0.0163624617374) : omega : 	0.0175372336349 : d : 	(0.083194655468 -0.245083551895 -0.965925826289)
	I262 : dAve : 	(0.00115583459655 -0.00581077291359 -0.0163624617374) : omega : 	0.0175372336349 : d : 	(0.050493090853 -0.253845909725 -0.965925826289)
	I263 : dAve : 	(0.000387488209079 -0.00591192763451 -0.0163624617374) : omega : 	0.0175372336349 : d : 	(0.0169275754541 -0.25826489366 -0.965925826289)
	I264 : dAve : 	(-0.000387488209079 -0.00591192763451 -0.0163624617374) : omega : 	0.0175372336349 : d : 	(-0.0169275754541 -0.25826489366 -0.965925826289)
	I265 : dAve : 	(-0.00115583459655 -0.00581077291359 -0.0163624617374) : omega : 	0.0175372336349 : d : 	(-0.050493090853 -0.253845909725 -0.965925826289)
	I266 : dAve : 	(-0.00190440433361 -0.00561019425706 -0.0163624617374) : omega : 	0.0175372336349 : d : 	(-0.083194655468 -0.245083551895 -0.965925826289)
	I267 : dAve : 	(-0.00262038918453 -0.00531362362136 -0.0163624617374) : omega : 	0.0175372336349 : d : 	(-0.114472736462 -0.232127746542 -0.965925826289)
	I268 : dAve : 	(-0.00329153844998 -0.00492613541228 -0.0163624617374) : omega : 	0.0175372336349 : d : 	(-0.143792157198 -0.215200171088 -0.965925826289)
	I269 : dAve : 	(-0.00390636857998 -0.00445435966052 -0.0163624617374) : omega : 	0.0175372336349 : d : 	(-0.170651254257 -0.194590461042 -0.965925826289)
	I270 : dAve : 	(-0.00445435966052 -0.00390636857998 -0.0163624617374) : omega : 	0.0175372336349 : d : 	(-0.194590461042 -0.170651254257 -0.965925826289)
	I271 : dAve : 	(-0.00492613541228 -0.00329153844998 -0.0163624617374) : omega : 	0.0175372336349 : d : 	(-0.215200171088 -0.143792157198 -0.965925826289)
	I272 : dAve : 	(-0.00531362362136 -0.00262038918453 -0.0163624617374) : omega : 	0.0175372336349 : d : 	(-0.232127746542 -0.114472736462 -0.965925826289)
	I273 : dAve : 	(-0.00561019425706 -0.00190440433361 -0.0163624617374) : omega : 	0.0175372336349 : d : 	(-0.245083551895 -0.083194655468 -0.965925826289)
	I274 : dAve : 	(-0.00581077291359 -0.00115583459655 -0.0163624617374) : omega : 	0.0175372336349 : d : 	(-0.253845909725 -0.050493090853 -0.965925826289)
	I275 : dAve : 	(-0.00591192763451 -0.000387488209079 -0.0163624617374) : omega : 	0.0175372336349 : d : 	(-0.25826489366 -0.0169275754541 -0.965925826289)
	I276 : dAve : 	(-0.00591192763451 0.000387488209079 -0.0163624617374) : omega : 	0.0175372336349 : d : 	(-0.25826489366 0.0169275754541 -0.965925826289)
	I277 : dAve : 	(-0.00581077291359 0.00115583459655 -0.0163624617374) : omega : 	0.0175372336349 : d : 	(-0.253845909725 0.050493090853 -0.965925826289)
	I278 : dAve : 	(-0.00561019425706 0.00190440433361 -0.0163624617374) : omega : 	0.0175372336349 : d : 	(-0.245083551895 0.083194655468 -0.965925826289)
	I279 : dAve : 	(-0.00531362362136 0.00262038918453 -0.0163624617374) : omega : 	0.0175372336349 : d : 	(-0.232127746542 0.114472736462 -0.965925826289)
	I280 : dAve : 	(-0.00492613541228 0.00329153844998 -0.0163624617374) : omega : 	0.0175372336349 : d : 	(-0.215200171088 0.143792157198 -0.965925826289)
	I281 : dAve : 	(-0.00445435966052 0.00390636857998 -0.0163624617374) : omega : 	0.0175372336349 : d : 	(-0.194590461042 0.170651254257 -0.965925826289)
	I282 : dAve : 	(-0.00390636857998 0.00445435966052 -0.0163624617374) : omega : 	0.0175372336349 : d : 	(-0.170651254257 0.194590461042 -0.965925826289)
	I283 : dAve : 	(-0.00329153844998 0.00492613541228 -0.0163624617374) : omega : 	0.0175372336349 : d : 	(-0.143792157198 0.215200171088 -0.965925826289)
	I284 : dAve : 	(-0.00262038918453 0.00531362362136 -0.0163624617374) : omega : 	0.0175372336349 : d : 	(-0.114472736462 0.232127746542 -0.965925826289)
	I285 : dAve : 	(-0.00190440433361 0.00561019425706 -0.0163624617374) : omega : 	0.0175372336349 : d : 	(-0.083194655468 0.245083551895 -0.965925826289)
	I286 : dAve : 	(-0.00115583459655 0.00581077291359 -0.0163624617374) : omega : 	0.0175372336349 : d : 	(-0.050493090853 0.253845909725 -0.965925826289)
	I287 : dAve : 	(-0.000387488209079 0.00591192763451 -0.0163624617374) : omega : 	0.0175372336349 : d : 	(-0.0169275754541 0.25826489366 -0.965925826289)
Total omega : 12.5663706144

Courant Number mean: 0 max: 0

Starting time loop

Sampled set:
    data -> csv

Sampled set:
    data -> csv

Sampled surface:
    yNormal -> ensight
        sampledCuttingPlane: yNormal : plane:(0 1 0) (0 0 0) offsets:(0)

Sampled surface:
    zNormal -> ensight
        sampledCuttingPlane: zNormal : plane:(0 0 1) (0 0 0) offsets:(0)

Sampled surface:
    patchAll -> ensight
        sampledPatch: patchAll : patches:(".*WW.*")

deltaT = 1
Time = 1

PIMPLE: iteration 1
Radiation solver iter: 0
DILUPBiCGStab:  Solving for ILambda_0_0, Initial residual = 1, Final residual = 5.62364348642e-64, No Iterations 2
DILUPBiCGStab:  Solving for ILambda_1_0, Initial residual = 1, Final residual = 1.21525160341e-64, No Iterations 2
DILUPBiCGStab:  Solving for ILambda_2_0, Initial residual = 1, Final residual = 5.08457524793e-64, No Iterations 2
DILUPBiCGStab:  Solving for ILambda_3_0, Initial residual = 1, Final residual = 2.60870449223e-64, No Iterations 2
DILUPBiCGStab:  Solving for ILambda_4_0, Initial residual = 1, Final residual = 1.43372109982e-64, No Iterations 2
DILUPBiCGStab:  Solving for ILambda_5_0, Initial residual = 1, Final residual = 2.59861877551e-64, No Iterations 2
DILUPBiCGStab:  Solving for ILambda_6_0, Initial residual = 1, Final residual = 4.76350693272e-64, No Iterations 2
DILUPBiCGStab:  Solving for ILambda_7_0, Initial residual = 1, Final residual = 3.08521523996e-64, No Iterations 2
DILUPBiCGStab:  Solving for ILambda_8_0, Initial residual = 1, Final residual = 2.6560288633e-64, No Iterations 2
DILUPBiCGStab:  Solving for ILambda_9_0, Initial residual = 1, Final residual = 4.73802700735e-64, No Iterations 2
DILUPBiCGStab:  Solving for ILambda_10_0, Initial residual = 1, Final residual = 2.35393659167e-64, No Iterations 2
DILUPBiCGStab:  Solving for ILambda_11_0, Initial residual = 1, Final residual = 1.32801536017e-64, No Iterations 2
DILUPBiCGStab:  Solving for ILambda_12_0, Initial residual = 1, Final residual = 1.8021324565e-63, No Iterations 10
DILUPBiCGStab:  Solving for ILambda_13_0, Initial residual = 1, Final residual = 8.75394336683e-62, No Iterations 12
DILUPBiCGStab:  Solving for ILambda_14_0, Initial residual = 1, Final residual = 4.29025073835e-61, No Iterations 12
DILUPBiCGStab:  Solving for ILambda_15_0, Initial residual = 1, Final residual = 1.5784777398e-61, No Iterations 13
DILUPBiCGStab:  Solving for ILambda_16_0, Initial residual = 1, Final residual = 2.20968981854e-61, No Iterations 14
DILUPBiCGStab:  Solving for ILambda_17_0, Initial residual = 1, Final residual = 5.1889866162e-61, No Iterations 14
DILUPBiCGStab:  Solving for ILambda_18_0, Initial residual = 1, Final residual = 3.51339327518e-61, No Iterations 14
DILUPBiCGStab:  Solving for ILambda_19_0, Initial residual = 1, Final residual = 4.80331892161e-62, No Iterations 14
DILUPBiCGStab:  Solving for ILambda_20_0, Initial residual = 1, Final residual = 5.5896127416e-62, No Iterations 13
DILUPBiCGStab:  Solving for ILambda_21_0, Initial residual = 1, Final residual = 2.77559994796e-62, No Iterations 13
DILUPBiCGStab:  Solving for ILambda_22_0, Initial residual = 1, Final residual = 1.54927199555e-63, No Iterations 12
DILUPBiCGStab:  Solving for ILambda_23_0, Initial residual = 1, Final residual = 7.76386280736e-62, No Iterations 11
DILUPBiCGStab:  Solving for ILambda_24_0, Initial residual = 1, Final residual = 1.67714207049e-62, No Iterations 10
DILUPBiCGStab:  Solving for ILambda_25_0, Initial residual = 1, Final residual = 2.98026503116e-65, No Iterations 10
DILUPBiCGStab:  Solving for ILambda_26_0, Initial residual = 1, Final residual = 1.10309564496e-61, No Iterations 10
DILUPBiCGStab:  Solving for ILambda_27_0, Initial residual = 1, Final residual = 3.47591799829e-62, No Iterations 10
DILUPBiCGStab:  Solving for ILambda_28_0, Initial residual = 1, Final residual = 6.29501459667e-63, No Iterations 11
DILUPBiCGStab:  Solving for ILambda_29_0, Initial residual = 1, Final residual = 2.90318292019e-63, No Iterations 10
DILUPBiCGStab:  Solving for ILambda_30_0, Initial residual = 1, Final residual = 6.19650966636e-62, No Iterations 11
DILUPBiCGStab:  Solving for ILambda_31_0, Initial residual = 1, Final residual = 5.23075164106e-62, No Iterations 11
DILUPBiCGStab:  Solving for ILambda_32_0, Initial residual = 1, Final residual = 4.35628613966e-63, No Iterations 11
DILUPBiCGStab:  Solving for ILambda_33_0, Initial residual = 1, Final residual = 3.14218058015e-61, No Iterations 10
DILUPBiCGStab:  Solving for ILambda_34_0, Initial residual = 1, Final residual = 3.73001276226e-62, No Iterations 11
DILUPBiCGStab:  Solving for ILambda_35_0, Initial residual = 1, Final residual = 1.92942078468e-61, No Iterations 10
DILUPBiCGStab:  Solving for ILambda_36_0, Initial residual = 1, Final residual = 7.69286216645e-62, No Iterations 11
DILUPBiCGStab:  Solving for ILambda_37_0, Initial residual = 1, Final residual = 1.54859217765e-63, No Iterations 12
DILUPBiCGStab:  Solving for ILambda_38_0, Initial residual = 1, Final residual = 2.3084682418e-62, No Iterations 13
DILUPBiCGStab:  Solving for ILambda_39_0, Initial residual = 1, Final residual = 5.62990174944e-62, No Iterations 13
DILUPBiCGStab:  Solving for ILambda_40_0, Initial residual = 1, Final residual = 4.80275207366e-62, No Iterations 14
DILUPBiCGStab:  Solving for ILambda_41_0, Initial residual = 1, Final residual = 3.51318071615e-61, No Iterations 14
DILUPBiCGStab:  Solving for ILambda_42_0, Initial residual = 1, Final residual = 5.18847940073e-61, No Iterations 14
DILUPBiCGStab:  Solving for ILambda_43_0, Initial residual = 1, Final residual = 2.20945583302e-61, No Iterations 14
DILUPBiCGStab:  Solving for ILambda_44_0, Initial residual = 1, Final residual = 1.57957452193e-61, No Iterations 13
DILUPBiCGStab:  Solving for ILambda_45_0, Initial residual = 1, Final residual = 4.28952359048e-61, No Iterations 12
DILUPBiCGStab:  Solving for ILambda_46_0, Initial residual = 1, Final residual = 8.75081335193e-62, No Iterations 12
DILUPBiCGStab:  Solving for ILambda_47_0, Initial residual = 1, Final residual = 1.80076587379e-63, No Iterations 10
DILUPBiCGStab:  Solving for ILambda_48_0, Initial residual = 1, Final residual = 2.23453039444e-64, No Iterations 2
DILUPBiCGStab:  Solving for ILambda_49_0, Initial residual = 1, Final residual = 2.89728412603e-64, No Iterations 2
DILUPBiCGStab:  Solving for ILambda_50_0, Initial residual = 1, Final residual = 4.75296579314e-64, No Iterations 2
DILUPBiCGStab:  Solving for ILambda_51_0, Initial residual = 1, Final residual = 5.08277976441e-64, No Iterations 2
DILUPBiCGStab:  Solving for ILambda_52_0, Initial residual = 1, Final residual = 2.50699424968e-64, No Iterations 2
DILUPBiCGStab:  Solving for ILambda_53_0, Initial residual = 1, Final residual = 1.30698651424e-64, No Iterations 2
DILUPBiCGStab:  Solving for ILambda_54_0, Initial residual = 1, Final residual = 1.06152189447e-64, No Iterations 2
DILUPBiCGStab:  Solving for ILambda_55_0, Initial residual = 1, Final residual = 2.20147140378e-64, No Iterations 2
DILUPBiCGStab:  Solving for ILambda_56_0, Initial residual = 1, Final residual = 2.24534205085e-64, No Iterations 2
DILUPBiCGStab:  Solving for ILambda_57_0, Initial residual = 1, Final residual = 1.02540155043e-64, No Iterations 2
DILUPBiCGStab:  Solving for ILambda_58_0, Initial residual = 1, Final residual = 1.09653380471e-64, No Iterations 2
DILUPBiCGStab:  Solving for ILambda_59_0, Initial residual = 1, Final residual = 1.07827914115e-64, No Iterations 2
DILUPBiCGStab:  Solving for ILambda_60_0, Initial residual = 1, Final residual = 8.36711216463e-63, No Iterations 12
DILUPBiCGStab:  Solving for ILambda_61_0, Initial residual = 1, Final residual = 1.53641076222e-61, No Iterations 15
DILUPBiCGStab:  Solving for ILambda_62_0, Initial residual = 1, Final residual = 1.79060342391e-62, No Iterations 16
DILUPBiCGStab:  Solving for ILambda_63_0, Initial residual = 1, Final residual = 1.25347828651e-61, No Iterations 17
DILUPBiCGStab:  Solving for ILambda_64_0, Initial residual = 1, Final residual = 1.73953980323e-61, No Iterations 17
DILUPBiCGStab:  Solving for ILambda_65_0, Initial residual = 1, Final residual = 5.53183488294e-63, No Iterations 18
DILUPBiCGStab:  Solving for ILambda_66_0, Initial residual = 1, Final residual = 5.16185188392e-63, No Iterations 18
DILUPBiCGStab:  Solving for ILambda_67_0, Initial residual = 1, Final residual = 3.50947120499e-61, No Iterations 17
DILUPBiCGStab:  Solving for ILambda_68_0, Initial residual = 1, Final residual = 3.75570678717e-61, No Iterations 17
DILUPBiCGStab:  Solving for ILambda_69_0, Initial residual = 1, Final residual = 5.5450669902e-62, No Iterations 16
DILUPBiCGStab:  Solving for ILambda_70_0, Initial residual = 1, Final residual = 7.69116464074e-62, No Iterations 15
DILUPBiCGStab:  Solving for ILambda_71_0, Initial residual = 1, Final residual = 5.18610009116e-62, No Iterations 13
DILUPBiCGStab:  Solving for ILambda_72_0, Initial residual = 1, Final residual = 9.55826966129e-63, No Iterations 10
DILUPBiCGStab:  Solving for ILambda_73_0, Initial residual = 1, Final residual = 1.5806105473e-63, No Iterations 10
DILUPBiCGStab:  Solving for ILambda_74_0, Initial residual = 1, Final residual = 1.24881294091e-62, No Iterations 11
DILUPBiCGStab:  Solving for ILambda_75_0, Initial residual = 1, Final residual = 3.5979775685e-62, No Iterations 10
DILUPBiCGStab:  Solving for ILambda_76_0, Initial residual = 1, Final residual = 3.11323976531e-61, No Iterations 11
DILUPBiCGStab:  Solving for ILambda_77_0, Initial residual = 1, Final residual = 3.44124898069e-65, No Iterations 11
DILUPBiCGStab:  Solving for ILambda_78_0, Initial residual = 1, Final residual = 3.50057170219e-65, No Iterations 10
DILUPBiCGStab:  Solving for ILambda_79_0, Initial residual = 1, Final residual = 7.42146502607e-62, No Iterations 11
DILUPBiCGStab:  Solving for ILambda_80_0, Initial residual = 1, Final residual = 3.59630813817e-64, No Iterations 10
DILUPBiCGStab:  Solving for ILambda_81_0, Initial residual = 1, Final residual = 1.9751153373e-63, No Iterations 11
DILUPBiCGStab:  Solving for ILambda_82_0, Initial residual = 1, Final residual = 6.18585402067e-62, No Iterations 10
DILUPBiCGStab:  Solving for ILambda_83_0, Initial residual = 1, Final residual = 4.2714627759e-62, No Iterations 11
DILUPBiCGStab:  Solving for ILambda_84_0, Initial residual = 1, Final residual = 5.29886985719e-62, No Iterations 13
DILUPBiCGStab:  Solving for ILambda_85_0, Initial residual = 1, Final residual = 7.6909600839e-62, No Iterations 15
DILUPBiCGStab:  Solving for ILambda_86_0, Initial residual = 1, Final residual = 5.54506515725e-62, No Iterations 16
DILUPBiCGStab:  Solving for ILambda_87_0, Initial residual = 1, Final residual = 3.75570687448e-61, No Iterations 17
DILUPBiCGStab:  Solving for ILambda_88_0, Initial residual = 1, Final residual = 3.509471103e-61, No Iterations 17
DILUPBiCGStab:  Solving for ILambda_89_0, Initial residual = 1, Final residual = 5.16185180508e-63, No Iterations 18
DILUPBiCGStab:  Solving for ILambda_90_0, Initial residual = 1, Final residual = 5.53183460479e-63, No Iterations 18
DILUPBiCGStab:  Solving for ILambda_91_0, Initial residual = 1, Final residual = 1.73953977976e-61, No Iterations 17
DILUPBiCGStab:  Solving for ILambda_92_0, Initial residual = 1, Final residual = 1.25347833612e-61, No Iterations 17
DILUPBiCGStab:  Solving for ILambda_93_0, Initial residual = 1, Final residual = 1.79060316928e-62, No Iterations 16
DILUPBiCGStab:  Solving for ILambda_94_0, Initial residual = 1, Final residual = 1.53640542333e-61, No Iterations 15
DILUPBiCGStab:  Solving for ILambda_95_0, Initial residual = 1, Final residual = 8.36709696428e-63, No Iterations 12
DILUPBiCGStab:  Solving for ILambda_96_0, Initial residual = 1, Final residual = 2.82478701772e-64, No Iterations 2
DILUPBiCGStab:  Solving for ILambda_97_0, Initial residual = 1, Final residual = 2.56472387877e-64, No Iterations 2
DILUPBiCGStab:  Solving for ILambda_98_0, Initial residual = 1, Final residual = 1.67934648099e-64, No Iterations 2
DILUPBiCGStab:  Solving for ILambda_99_0, Initial residual = 1, Final residual = 3.49635068711e-64, No Iterations 2
DILUPBiCGStab:  Solving for ILambda_100_0, Initial residual = 1, Final residual = 2.69653368004e-64, No Iterations 2
DILUPBiCGStab:  Solving for ILambda_101_0, Initial residual = 1, Final residual = 2.53398101705e-64, No Iterations 2
DILUPBiCGStab:  Solving for ILambda_102_0, Initial residual = 1, Final residual = 2.64986092496e-64, No Iterations 2
DILUPBiCGStab:  Solving for ILambda_103_0, Initial residual = 1, Final residual = 1.20204041942e-64, No Iterations 2
DILUPBiCGStab:  Solving for ILambda_104_0, Initial residual = 1, Final residual = 1.76863775679e-64, No Iterations 2
DILUPBiCGStab:  Solving for ILambda_105_0, Initial residual = 1, Final residual = 1.4171247027e-64, No Iterations 2
DILUPBiCGStab:  Solving for ILambda_106_0, Initial residual = 1, Final residual = 2.26616699454e-64, No Iterations 2
DILUPBiCGStab:  Solving for ILambda_107_0, Initial residual = 1, Final residual = 5.32074953872e-64, No Iterations 2
DILUPBiCGStab:  Solving for ILambda_108_0, Initial residual = 1, Final residual = 6.94144952881e-63, No Iterations 13
DILUPBiCGStab:  Solving for ILambda_109_0, Initial residual = 1, Final residual = 9.45667000482e-61, No Iterations 16
DILUPBiCGStab:  Solving for ILambda_110_0, Initial residual = 1, Final residual = 1.87038896312e-62, No Iterations 18
DILUPBiCGStab:  Solving for ILambda_111_0, Initial residual = 1, Final residual = 4.56940391954e-63, No Iterations 19
DILUPBiCGStab:  Solving for ILambda_112_0, Initial residual = 1, Final residual = 1.81419121455e-62, No Iterations 19
DILUPBiCGStab:  Solving for ILambda_113_0, Initial residual = 1, Final residual = 3.14777434562e-61, No Iterations 19
DILUPBiCGStab:  Solving for ILambda_114_0, Initial residual = 1, Final residual = 5.946315862e-61, No Iterations 19
DILUPBiCGStab:  Solving for ILambda_115_0, Initial residual = 1, Final residual = 3.49099191507e-61, No Iterations 19
DILUPBiCGStab:  Solving for ILambda_116_0, Initial residual = 1, Final residual = 4.1433560619e-62, No Iterations 19
DILUPBiCGStab:  Solving for ILambda_117_0, Initial residual = 1, Final residual = 5.05287836723e-61, No Iterations 18
DILUPBiCGStab:  Solving for ILambda_118_0, Initial residual = 1, Final residual = 1.54400846361e-62, No Iterations 16
DILUPBiCGStab:  Solving for ILambda_119_0, Initial residual = 1, Final residual = 6.67714674298e-61, No Iterations 13
DILUPBiCGStab:  Solving for ILambda_120_0, Initial residual = 1, Final residual = 6.85037502467e-61, No Iterations 10
DILUPBiCGStab:  Solving for ILambda_121_0, Initial residual = 1, Final residual = 7.02367484303e-63, No Iterations 10
DILUPBiCGStab:  Solving for ILambda_122_0, Initial residual = 1, Final residual = 6.73541787284e-64, No Iterations 10
DILUPBiCGStab:  Solving for ILambda_123_0, Initial residual = 1, Final residual = 5.19404532337e-62, No Iterations 9
DILUPBiCGStab:  Solving for ILambda_124_0, Initial residual = 1, Final residual = 8.78086838463e-64, No Iterations 10
DILUPBiCGStab:  Solving for ILambda_125_0, Initial residual = 1, Final residual = 8.262613301e-61, No Iterations 11
DILUPBiCGStab:  Solving for ILambda_126_0, Initial residual = 1, Final residual = 5.01269683304e-64, No Iterations 10
DILUPBiCGStab:  Solving for ILambda_127_0, Initial residual = 1, Final residual = 5.0520195561e-63, No Iterations 11
DILUPBiCGStab:  Solving for ILambda_128_0, Initial residual = 1, Final residual = 6.03596248614e-61, No Iterations 10
DILUPBiCGStab:  Solving for ILambda_129_0, Initial residual = 1, Final residual = 8.82995815655e-61, No Iterations 10
DILUPBiCGStab:  Solving for ILambda_130_0, Initial residual = 1, Final residual = 2.63617735179e-62, No Iterations 9
DILUPBiCGStab:  Solving for ILambda_131_0, Initial residual = 1, Final residual = 5.69339532668e-62, No Iterations 10
DILUPBiCGStab:  Solving for ILambda_132_0, Initial residual = 1, Final residual = 6.67714085324e-61, No Iterations 13
DILUPBiCGStab:  Solving for ILambda_133_0, Initial residual = 1, Final residual = 1.54400852913e-62, No Iterations 16
DILUPBiCGStab:  Solving for ILambda_134_0, Initial residual = 1, Final residual = 5.05287828937e-61, No Iterations 18
DILUPBiCGStab:  Solving for ILambda_135_0, Initial residual = 1, Final residual = 4.14335601826e-62, No Iterations 19
DILUPBiCGStab:  Solving for ILambda_136_0, Initial residual = 1, Final residual = 3.4909919173e-61, No Iterations 19
DILUPBiCGStab:  Solving for ILambda_137_0, Initial residual = 1, Final residual = 5.94631585641e-61, No Iterations 19
DILUPBiCGStab:  Solving for ILambda_138_0, Initial residual = 1, Final residual = 3.14777433077e-61, No Iterations 19
DILUPBiCGStab:  Solving for ILambda_139_0, Initial residual = 1, Final residual = 1.81419123039e-62, No Iterations 19
DILUPBiCGStab:  Solving for ILambda_140_0, Initial residual = 1, Final residual = 4.56940393363e-63, No Iterations 19
DILUPBiCGStab:  Solving for ILambda_141_0, Initial residual = 1, Final residual = 1.87038900539e-62, No Iterations 18
DILUPBiCGStab:  Solving for ILambda_142_0, Initial residual = 1, Final residual = 9.45667080708e-61, No Iterations 16
DILUPBiCGStab:  Solving for ILambda_143_0, Initial residual = 1, Final residual = 6.94144666932e-63, No Iterations 13
DILUPBiCGStab:  Solving for ILambda_144_0, Initial residual = 1, Final residual = 8.38529581171e-64, No Iterations 10
DILUPBiCGStab:  Solving for ILambda_145_0, Initial residual = 1, Final residual = 6.29349257417e-61, No Iterations 10
DILUPBiCGStab:  Solving for ILambda_146_0, Initial residual = 1, Final residual = 7.55917635559e-62, No Iterations 10
DILUPBiCGStab:  Solving for ILambda_147_0, Initial residual = 1, Final residual = 3.85193904411e-62, No Iterations 10
DILUPBiCGStab:  Solving for ILambda_148_0, Initial residual = 1, Final residual = 7.88168484726e-64, No Iterations 10
DILUPBiCGStab:  Solving for ILambda_149_0, Initial residual = 1, Final residual = 3.40248311159e-63, No Iterations 10
DILUPBiCGStab:  Solving for ILambda_150_0, Initial residual = 1, Final residual = 3.34759619662e-66, No Iterations 10
DILUPBiCGStab:  Solving for ILambda_151_0, Initial residual = 1, Final residual = 6.55309955534e-61, No Iterations 10
DILUPBiCGStab:  Solving for ILambda_152_0, Initial residual = 1, Final residual = 2.15099260779e-61, No Iterations 10
DILUPBiCGStab:  Solving for ILambda_153_0, Initial residual = 1, Final residual = 1.11499284469e-61, No Iterations 10
DILUPBiCGStab:  Solving for ILambda_154_0, Initial residual = 1, Final residual = 2.87109694591e-61, No Iterations 10
DILUPBiCGStab:  Solving for ILambda_155_0, Initial residual = 1, Final residual = 1.9383678448e-62, No Iterations 10
DILUPBiCGStab:  Solving for ILambda_156_0, Initial residual = 1, Final residual = 9.47389371662e-61, No Iterations 13
DILUPBiCGStab:  Solving for ILambda_157_0, Initial residual = 1, Final residual = 1.49633965158e-62, No Iterations 16
DILUPBiCGStab:  Solving for ILambda_158_0, Initial residual = 1, Final residual = 1.85864650625e-61, No Iterations 18
DILUPBiCGStab:  Solving for ILambda_159_0, Initial residual = 1, Final residual = 5.72386467166e-62, No Iterations 19
DILUPBiCGStab:  Solving for ILambda_160_0, Initial residual = 1, Final residual = 6.73556818374e-62, No Iterations 19
DILUPBiCGStab:  Solving for ILambda_161_0, Initial residual = 1, Final residual = 5.18300700166e-61, No Iterations 19
DILUPBiCGStab:  Solving for ILambda_162_0, Initial residual = 1, Final residual = 3.87761616243e-61, No Iterations 19
DILUPBiCGStab:  Solving for ILambda_163_0, Initial residual = 1, Final residual = 2.58290537879e-62, No Iterations 19
DILUPBiCGStab:  Solving for ILambda_164_0, Initial residual = 1, Final residual = 6.68863285197e-63, No Iterations 19
DILUPBiCGStab:  Solving for ILambda_165_0, Initial residual = 1, Final residual = 4.93175556399e-62, No Iterations 18
DILUPBiCGStab:  Solving for ILambda_166_0, Initial residual = 1, Final residual = 8.24754288086e-63, No Iterations 16
DILUPBiCGStab:  Solving for ILambda_167_0, Initial residual = 1, Final residual = 6.00977226919e-63, No Iterations 13
DILUPBiCGStab:  Solving for ILambda_168_0, Initial residual = 1, Final residual = 1.432425775e-64, No Iterations 2
DILUPBiCGStab:  Solving for ILambda_169_0, Initial residual = 1, Final residual = 1.55696736058e-64, No Iterations 2
DILUPBiCGStab:  Solving for ILambda_170_0, Initial residual = 1, Final residual = 1.55522925013e-64, No Iterations 2
DILUPBiCGStab:  Solving for ILambda_171_0, Initial residual = 1, Final residual = 7.0356490769e-64, No Iterations 2
DILUPBiCGStab:  Solving for ILambda_172_0, Initial residual = 1, Final residual = 5.31499365114e-64, No Iterations 2
DILUPBiCGStab:  Solving for ILambda_173_0, Initial residual = 1, Final residual = 1.97316967536e-64, No Iterations 2
DILUPBiCGStab:  Solving for ILambda_174_0, Initial residual = 1, Final residual = 3.02306918402e-64, No Iterations 2
DILUPBiCGStab:  Solving for ILambda_175_0, Initial residual = 1, Final residual = 1.51834874106e-64, No Iterations 2
DILUPBiCGStab:  Solving for ILambda_176_0, Initial residual = 1, Final residual = 2.5717352778e-64, No Iterations 2
DILUPBiCGStab:  Solving for ILambda_177_0, Initial residual = 1, Final residual = 3.08064304691e-64, No Iterations 2
DILUPBiCGStab:  Solving for ILambda_178_0, Initial residual = 1, Final residual = 1.56193011819e-64, No Iterations 2
DILUPBiCGStab:  Solving for ILambda_179_0, Initial residual = 1, Final residual = 1.61077676283e-64, No Iterations 2
DILUPBiCGStab:  Solving for ILambda_180_0, Initial residual = 1, Final residual = 6.00977025565e-63, No Iterations 13
DILUPBiCGStab:  Solving for ILambda_181_0, Initial residual = 1, Final residual = 8.24754390679e-63, No Iterations 16
DILUPBiCGStab:  Solving for ILambda_182_0, Initial residual = 1, Final residual = 4.9317556521e-62, No Iterations 18
DILUPBiCGStab:  Solving for ILambda_183_0, Initial residual = 1, Final residual = 6.68863290965e-63, No Iterations 19
DILUPBiCGStab:  Solving for ILambda_184_0, Initial residual = 1, Final residual = 2.58290537429e-62, No Iterations 19
DILUPBiCGStab:  Solving for ILambda_185_0, Initial residual = 1, Final residual = 3.87761614414e-61, No Iterations 19
DILUPBiCGStab:  Solving for ILambda_186_0, Initial residual = 1, Final residual = 5.18300703973e-61, No Iterations 19
DILUPBiCGStab:  Solving for ILambda_187_0, Initial residual = 1, Final residual = 6.73556815736e-62, No Iterations 19
DILUPBiCGStab:  Solving for ILambda_188_0, Initial residual = 1, Final residual = 5.7238646885e-62, No Iterations 19
DILUPBiCGStab:  Solving for ILambda_189_0, Initial residual = 1, Final residual = 1.85864653438e-61, No Iterations 18
DILUPBiCGStab:  Solving for ILambda_190_0, Initial residual = 1, Final residual = 1.49633967053e-62, No Iterations 16
DILUPBiCGStab:  Solving for ILambda_191_0, Initial residual = 1, Final residual = 9.47393673083e-61, No Iterations 13
DILUPBiCGStab:  Solving for ILambda_192_0, Initial residual = 1, Final residual = 3.1114480064e-61, No Iterations 11
DILUPBiCGStab:  Solving for ILambda_193_0, Initial residual = 1, Final residual = 4.76562773873e-61, No Iterations 11
DILUPBiCGStab:  Solving for ILambda_194_0, Initial residual = 1, Final residual = 3.51614752162e-63, No Iterations 11
DILUPBiCGStab:  Solving for ILambda_195_0, Initial residual = 1, Final residual = 3.69791166874e-63, No Iterations 11
DILUPBiCGStab:  Solving for ILambda_196_0, Initial residual = 1, Final residual = 7.64053204388e-63, No Iterations 11
DILUPBiCGStab:  Solving for ILambda_197_0, Initial residual = 1, Final residual = 6.20234546252e-61, No Iterations 11
DILUPBiCGStab:  Solving for ILambda_198_0, Initial residual = 1, Final residual = 1.80491380565e-62, No Iterations 11
DILUPBiCGStab:  Solving for ILambda_199_0, Initial residual = 1, Final residual = 4.76295878098e-64, No Iterations 11
DILUPBiCGStab:  Solving for ILambda_200_0, Initial residual = 1, Final residual = 1.59558096658e-61, No Iterations 11
DILUPBiCGStab:  Solving for ILambda_201_0, Initial residual = 1, Final residual = 6.9312776948e-62, No Iterations 11
DILUPBiCGStab:  Solving for ILambda_202_0, Initial residual = 1, Final residual = 1.79686950465e-63, No Iterations 11
DILUPBiCGStab:  Solving for ILambda_203_0, Initial residual = 1, Final residual = 4.05925818011e-64, No Iterations 11
DILUPBiCGStab:  Solving for ILambda_204_0, Initial residual = 1, Final residual = 1.26941192221e-61, No Iterations 13
DILUPBiCGStab:  Solving for ILambda_205_0, Initial residual = 1, Final residual = 1.50929418674e-61, No Iterations 15
DILUPBiCGStab:  Solving for ILambda_206_0, Initial residual = 1, Final residual = 2.30888809858e-61, No Iterations 16
DILUPBiCGStab:  Solving for ILambda_207_0, Initial residual = 1, Final residual = 5.31219973802e-61, No Iterations 17
DILUPBiCGStab:  Solving for ILambda_208_0, Initial residual = 1, Final residual = 4.44944181603e-61, No Iterations 17
DILUPBiCGStab:  Solving for ILambda_209_0, Initial residual = 1, Final residual = 8.38266795056e-63, No Iterations 18
DILUPBiCGStab:  Solving for ILambda_210_0, Initial residual = 1, Final residual = 8.96247894849e-63, No Iterations 18
DILUPBiCGStab:  Solving for ILambda_211_0, Initial residual = 1, Final residual = 2.5135832949e-61, No Iterations 17
DILUPBiCGStab:  Solving for ILambda_212_0, Initial residual = 1, Final residual = 1.98060252105e-61, No Iterations 17
DILUPBiCGStab:  Solving for ILambda_213_0, Initial residual = 1, Final residual = 2.64539532356e-62, No Iterations 16
DILUPBiCGStab:  Solving for ILambda_214_0, Initial residual = 1, Final residual = 2.88153199657e-61, No Iterations 15
DILUPBiCGStab:  Solving for ILambda_215_0, Initial residual = 1, Final residual = 8.75577492973e-63, No Iterations 12
DILUPBiCGStab:  Solving for ILambda_216_0, Initial residual = 1, Final residual = 3.07037472318e-63, No Iterations 2
DILUPBiCGStab:  Solving for ILambda_217_0, Initial residual = 1, Final residual = 5.08009208336e-64, No Iterations 2
DILUPBiCGStab:  Solving for ILambda_218_0, Initial residual = 1, Final residual = 3.10090131928e-64, No Iterations 2
DILUPBiCGStab:  Solving for ILambda_219_0, Initial residual = 1, Final residual = 4.69520464547e-64, No Iterations 2
DILUPBiCGStab:  Solving for ILambda_220_0, Initial residual = 1, Final residual = 1.68620980032e-64, No Iterations 2
DILUPBiCGStab:  Solving for ILambda_221_0, Initial residual = 1, Final residual = 2.61124745157e-64, No Iterations 2
DILUPBiCGStab:  Solving for ILambda_222_0, Initial residual = 1, Final residual = 1.24107293672e-64, No Iterations 2
DILUPBiCGStab:  Solving for ILambda_223_0, Initial residual = 1, Final residual = 1.36092216785e-64, No Iterations 2
DILUPBiCGStab:  Solving for ILambda_224_0, Initial residual = 1, Final residual = 2.96833304544e-64, No Iterations 2
DILUPBiCGStab:  Solving for ILambda_225_0, Initial residual = 1, Final residual = 3.45767580386e-64, No Iterations 2
DILUPBiCGStab:  Solving for ILambda_226_0, Initial residual = 1, Final residual = 1.87271166935e-64, No Iterations 2
DILUPBiCGStab:  Solving for ILambda_227_0, Initial residual = 1, Final residual = 1.43211220841e-64, No Iterations 2
DILUPBiCGStab:  Solving for ILambda_228_0, Initial residual = 1, Final residual = 8.75575518252e-63, No Iterations 12
DILUPBiCGStab:  Solving for ILambda_229_0, Initial residual = 1, Final residual = 2.88154036072e-61, No Iterations 15
DILUPBiCGStab:  Solving for ILambda_230_0, Initial residual = 1, Final residual = 2.64539611253e-62, No Iterations 16
DILUPBiCGStab:  Solving for ILambda_231_0, Initial residual = 1, Final residual = 1.98060250578e-61, No Iterations 17
DILUPBiCGStab:  Solving for ILambda_232_0, Initial residual = 1, Final residual = 2.51358333337e-61, No Iterations 17
DILUPBiCGStab:  Solving for ILambda_233_0, Initial residual = 1, Final residual = 8.96247724333e-63, No Iterations 18
DILUPBiCGStab:  Solving for ILambda_234_0, Initial residual = 1, Final residual = 8.38266881183e-63, No Iterations 18
DILUPBiCGStab:  Solving for ILambda_235_0, Initial residual = 1, Final residual = 4.44944157528e-61, No Iterations 17
DILUPBiCGStab:  Solving for ILambda_236_0, Initial residual = 1, Final residual = 5.31220039743e-61, No Iterations 17
DILUPBiCGStab:  Solving for ILambda_237_0, Initial residual = 1, Final residual = 2.30896025834e-61, No Iterations 16
DILUPBiCGStab:  Solving for ILambda_238_0, Initial residual = 1, Final residual = 1.51431276836e-61, No Iterations 15
DILUPBiCGStab:  Solving for ILambda_239_0, Initial residual = 1, Final residual = 1.28453116829e-61, No Iterations 13
DILUPBiCGStab:  Solving for ILambda_240_0, Initial residual = 1, Final residual = 7.14205963012e-63, No Iterations 10
DILUPBiCGStab:  Solving for ILambda_241_0, Initial residual = 1, Final residual = 2.75993638625e-64, No Iterations 10
DILUPBiCGStab:  Solving for ILambda_242_0, Initial residual = 1, Final residual = 1.1268910595e-62, No Iterations 10
DILUPBiCGStab:  Solving for ILambda_243_0, Initial residual = 1, Final residual = 1.04234735382e-63, No Iterations 10
DILUPBiCGStab:  Solving for ILambda_244_0, Initial residual = 1, Final residual = 5.16170267216e-61, No Iterations 10
DILUPBiCGStab:  Solving for ILambda_245_0, Initial residual = 1, Final residual = 1.26235811465e-62, No Iterations 11
DILUPBiCGStab:  Solving for ILambda_246_0, Initial residual = 1, Final residual = 3.43984867483e-62, No Iterations 11
DILUPBiCGStab:  Solving for ILambda_247_0, Initial residual = 1, Final residual = 6.62524698824e-64, No Iterations 10
DILUPBiCGStab:  Solving for ILambda_248_0, Initial residual = 1, Final residual = 8.00071420419e-61, No Iterations 11
DILUPBiCGStab:  Solving for ILambda_249_0, Initial residual = 1, Final residual = 1.69824501371e-61, No Iterations 10
DILUPBiCGStab:  Solving for ILambda_250_0, Initial residual = 1, Final residual = 6.90252640476e-62, No Iterations 11
DILUPBiCGStab:  Solving for ILambda_251_0, Initial residual = 1, Final residual = 5.95843932758e-63, No Iterations 10
DILUPBiCGStab:  Solving for ILambda_252_0, Initial residual = 1, Final residual = 3.0676535621e-61, No Iterations 11
DILUPBiCGStab:  Solving for ILambda_253_0, Initial residual = 1, Final residual = 4.25240036624e-63, No Iterations 12
DILUPBiCGStab:  Solving for ILambda_254_0, Initial residual = 1, Final residual = 1.37011976306e-61, No Iterations 13
DILUPBiCGStab:  Solving for ILambda_255_0, Initial residual = 1, Final residual = 1.01812863659e-61, No Iterations 13
DILUPBiCGStab:  Solving for ILambda_256_0, Initial residual = 1, Final residual = 9.75092054828e-62, No Iterations 14
DILUPBiCGStab:  Solving for ILambda_257_0, Initial residual = 1, Final residual = 6.65570473339e-61, No Iterations 14
DILUPBiCGStab:  Solving for ILambda_258_0, Initial residual = 1, Final residual = 9.33719993901e-61, No Iterations 14
DILUPBiCGStab:  Solving for ILambda_259_0, Initial residual = 1, Final residual = 4.47122687228e-61, No Iterations 14
DILUPBiCGStab:  Solving for ILambda_260_0, Initial residual = 1, Final residual = 1.99388537849e-61, No Iterations 13
DILUPBiCGStab:  Solving for ILambda_261_0, Initial residual = 1, Final residual = 4.33881444738e-62, No Iterations 13
DILUPBiCGStab:  Solving for ILambda_262_0, Initial residual = 1, Final residual = 9.89662882818e-62, No Iterations 12
DILUPBiCGStab:  Solving for ILambda_263_0, Initial residual = 1, Final residual = 1.79168740636e-63, No Iterations 10
DILUPBiCGStab:  Solving for ILambda_264_0, Initial residual = 1, Final residual = 2.36631413767e-64, No Iterations 2
DILUPBiCGStab:  Solving for ILambda_265_0, Initial residual = 1, Final residual = 3.9656822287e-64, No Iterations 2
DILUPBiCGStab:  Solving for ILambda_266_0, Initial residual = 1, Final residual = 3.38907621588e-64, No Iterations 2
DILUPBiCGStab:  Solving for ILambda_267_0, Initial residual = 1, Final residual = 1.37841103344e-64, No Iterations 2
DILUPBiCGStab:  Solving for ILambda_268_0, Initial residual = 1, Final residual = 1.35983886202e-64, No Iterations 2
DILUPBiCGStab:  Solving for ILambda_269_0, Initial residual = 1, Final residual = 1.53202775436e-64, No Iterations 2
DILUPBiCGStab:  Solving for ILambda_270_0, Initial residual = 1, Final residual = 2.80369678522e-64, No Iterations 2
DILUPBiCGStab:  Solving for ILambda_271_0, Initial residual = 1, Final residual = 1.69967196972e-64, No Iterations 2
DILUPBiCGStab:  Solving for ILambda_272_0, Initial residual = 1, Final residual = 2.29409098861e-64, No Iterations 2
DILUPBiCGStab:  Solving for ILambda_273_0, Initial residual = 1, Final residual = 2.20113250506e-64, No Iterations 2
DILUPBiCGStab:  Solving for ILambda_274_0, Initial residual = 1, Final residual = 2.5548359663e-64, No Iterations 2
DILUPBiCGStab:  Solving for ILambda_275_0, Initial residual = 1, Final residual = 1.60473776851e-64, No Iterations 2
DILUPBiCGStab:  Solving for ILambda_276_0, Initial residual = 1, Final residual = 1.79193065872e-63, No Iterations 10
DILUPBiCGStab:  Solving for ILambda_277_0, Initial residual = 1, Final residual = 9.87901980115e-62, No Iterations 12
DILUPBiCGStab:  Solving for ILambda_278_0, Initial residual = 1, Final residual = 4.33913723968e-62, No Iterations 13
DILUPBiCGStab:  Solving for ILambda_279_0, Initial residual = 1, Final residual = 1.98894709163e-61, No Iterations 13
DILUPBiCGStab:  Solving for ILambda_280_0, Initial residual = 1, Final residual = 4.53371319828e-61, No Iterations 14
DILUPBiCGStab:  Solving for ILambda_281_0, Initial residual = 1, Final residual = 9.27315360433e-61, No Iterations 14
DILUPBiCGStab:  Solving for ILambda_282_0, Initial residual = 1, Final residual = 6.61956439572e-61, No Iterations 14
DILUPBiCGStab:  Solving for ILambda_283_0, Initial residual = 1, Final residual = 9.51982497573e-62, No Iterations 14
DILUPBiCGStab:  Solving for ILambda_284_0, Initial residual = 1, Final residual = 1.00280248286e-61, No Iterations 13
DILUPBiCGStab:  Solving for ILambda_285_0, Initial residual = 1, Final residual = 1.38057379852e-61, No Iterations 13
[...]
DILUPBiCGStab:  Solving for ILambda_140_0, Initial residual = 8.80282728767e-16, Final residual = 3.03765167099e-62, No Iterations 14
DILUPBiCGStab:  Solving for ILambda_141_0, Initial residual = 8.80282728767e-16, Final residual = 2.70440870618e-62, No Iterations 13
DILUPBiCGStab:  Solving for ILambda_142_0, Initial residual = 1.04735892877e-15, Final residual = 8.19767707453e-62, No Iterations 12
DILUPBiCGStab:  Solving for ILambda_143_0, Initial residual = 8.29115642516e-16, Final residual = 4.04595618305e-62, No Iterations 10
DILUPBiCGStab:  Solving for ILambda_144_0, Initial residual = 7.37223732514e-16, Final residual = 6.25827198044e-62, No Iterations 6
DILUPBiCGStab:  Solving for ILambda_145_0, Initial residual = 8.09275343766e-16, Final residual = 7.38632463432e-62, No Iterations 7
DILUPBiCGStab:  Solving for ILambda_146_0, Initial residual = 9.22051778768e-16, Final residual = 1.0566245009e-63, No Iterations 6
DILUPBiCGStab:  Solving for ILambda_147_0, Initial residual = 8.62530882517e-16, Final residual = 7.02081476756e-61, No Iterations 6
DILUPBiCGStab:  Solving for ILambda_148_0, Initial residual = 7.22604565014e-16, Final residual = 2.17801655332e-61, No Iterations 6
DILUPBiCGStab:  Solving for ILambda_149_0, Initial residual = 6.94410456263e-16, Final residual = 1.32608672933e-63, No Iterations 7
DILUPBiCGStab:  Solving for ILambda_150_0, Initial residual = 6.59950990013e-16, Final residual = 4.25598419731e-62, No Iterations 6
DILUPBiCGStab:  Solving for ILambda_151_0, Initial residual = 8.83415407517e-16, Final residual = 1.25926669182e-61, No Iterations 6
DILUPBiCGStab:  Solving for ILambda_152_0, Initial residual = 8.64619335017e-16, Final residual = 5.54630360093e-61, No Iterations 6
DILUPBiCGStab:  Solving for ILambda_153_0, Initial residual = 8.30159868766e-16, Final residual = 9.09937333318e-61, No Iterations 6
DILUPBiCGStab:  Solving for ILambda_154_0, Initial residual = 7.83169687515e-16, Final residual = 6.52181094412e-61, No Iterations 6
DILUPBiCGStab:  Solving for ILambda_155_0, Initial residual = 7.93611950015e-16, Final residual = 6.20841856561e-64, No Iterations 6
DILUPBiCGStab:  Solving for ILambda_156_0, Initial residual = 8.16584927516e-16, Final residual = 3.77075828203e-62, No Iterations 10
DILUPBiCGStab:  Solving for ILambda_157_0, Initial residual = 8.74017371267e-16, Final residual = 2.1405956934e-62, No Iterations 12
DILUPBiCGStab:  Solving for ILambda_158_0, Initial residual = 8.10319570016e-16, Final residual = 4.28691043314e-62, No Iterations 13
DILUPBiCGStab:  Solving for ILambda_159_0, Initial residual = 8.06142665016e-16, Final residual = 5.95829030456e-62, No Iterations 14
DILUPBiCGStab:  Solving for ILambda_160_0, Initial residual = 8.54177072516e-16, Final residual = 3.31723831969e-61, No Iterations 14
DILUPBiCGStab:  Solving for ILambda_161_0, Initial residual = 8.29115642516e-16, Final residual = 1.31572631912e-61, No Iterations 14
DILUPBiCGStab:  Solving for ILambda_162_0, Initial residual = 6.70393252513e-16, Final residual = 3.55284761188e-62, No Iterations 14
DILUPBiCGStab:  Solving for ILambda_163_0, Initial residual = 8.94901896267e-16, Final residual = 4.93984518177e-61, No Iterations 14
DILUPBiCGStab:  Solving for ILambda_164_0, Initial residual = 8.04054212516e-16, Final residual = 3.13502910863e-62, No Iterations 14
DILUPBiCGStab:  Solving for ILambda_165_0, Initial residual = 7.97788855015e-16, Final residual = 4.47803147407e-61, No Iterations 13
DILUPBiCGStab:  Solving for ILambda_166_0, Initial residual = 8.45823262516e-16, Final residual = 1.0999884115e-61, No Iterations 12
DILUPBiCGStab:  Solving for ILambda_167_0, Initial residual = 7.42444863764e-16, Final residual = 1.70874231384e-62, No Iterations 10
DILUPBiCGStab:  Solving for ILambda_168_0, Initial residual = 6.47420275013e-16, Final residual = 9.73117798441e-64, No Iterations 2
DILUPBiCGStab:  Solving for ILambda_169_0, Initial residual = 8.66707787517e-16, Final residual = 1.01475845503e-63, No Iterations 2
DILUPBiCGStab:  Solving for ILambda_170_0, Initial residual = 7.10073850014e-16, Final residual = 8.81478317983e-64, No Iterations 2
DILUPBiCGStab:  Solving for ILambda_171_0, Initial residual = 6.81879741263e-16, Final residual = 8.20476065981e-64, No Iterations 2
DILUPBiCGStab:  Solving for ILambda_172_0, Initial residual = 8.19717606266e-16, Final residual = 1.00470620287e-63, No Iterations 2
DILUPBiCGStab:  Solving for ILambda_173_0, Initial residual = 7.93611950015e-16, Final residual = 1.04922301028e-63, No Iterations 2
DILUPBiCGStab:  Solving for ILambda_174_0, Initial residual = 7.37223732514e-16, Final residual = 1.14806656936e-63, No Iterations 2
DILUPBiCGStab:  Solving for ILambda_175_0, Initial residual = 7.88390818765e-16, Final residual = 1.12963945399e-63, No Iterations 2
DILUPBiCGStab:  Solving for ILambda_176_0, Initial residual = 8.34336773766e-16, Final residual = 1.01818850364e-63, No Iterations 2
DILUPBiCGStab:  Solving for ILambda_177_0, Initial residual = 9.61732376269e-16, Final residual = 1.18389575163e-63, No Iterations 2
DILUPBiCGStab:  Solving for ILambda_178_0, Initial residual = 9.57555471268e-16, Final residual = 1.33620755173e-63, No Iterations 2
DILUPBiCGStab:  Solving for ILambda_179_0, Initial residual = 8.18673380016e-16, Final residual = 1.9637476349e-63, No Iterations 2
DILUPBiCGStab:  Solving for ILambda_180_0, Initial residual = 7.38267958764e-16, Final residual = 7.26060034915e-62, No Iterations 10
DILUPBiCGStab:  Solving for ILambda_181_0, Initial residual = 6.81879741263e-16, Final residual = 5.73815398497e-61, No Iterations 12
DILUPBiCGStab:  Solving for ILambda_182_0, Initial residual = 8.90724991267e-16, Final residual = 5.44342065765e-61, No Iterations 13
DILUPBiCGStab:  Solving for ILambda_183_0, Initial residual = 7.88390818765e-16, Final residual = 2.44518318147e-62, No Iterations 14
DILUPBiCGStab:  Solving for ILambda_184_0, Initial residual = 8.67752013767e-16, Final residual = 2.21062470417e-61, No Iterations 14
DILUPBiCGStab:  Solving for ILambda_185_0, Initial residual = 7.81081235015e-16, Final residual = 2.32508644846e-62, No Iterations 14
DILUPBiCGStab:  Solving for ILambda_186_0, Initial residual = 7.77948556265e-16, Final residual = 2.29903368608e-61, No Iterations 14
DILUPBiCGStab:  Solving for ILambda_187_0, Initial residual = 8.32248321266e-16, Final residual = 6.8604475478e-62, No Iterations 14
DILUPBiCGStab:  Solving for ILambda_188_0, Initial residual = 7.28869922514e-16, Final residual = 4.77936188348e-61, No Iterations 14
DILUPBiCGStab:  Solving for ILambda_189_0, Initial residual = 8.94901896267e-16, Final residual = 4.01312580291e-62, No Iterations 13
DILUPBiCGStab:  Solving for ILambda_190_0, Initial residual = 9.30405588768e-16, Final residual = 5.0982085335e-62, No Iterations 12
DILUPBiCGStab:  Solving for ILambda_191_0, Initial residual = 7.09029623764e-16, Final residual = 1.62085431338e-62, No Iterations 10
DILUPBiCGStab:  Solving for ILambda_192_0, Initial residual = 3.51643189694e-16, Final residual = 3.43288817903e-61, No Iterations 7
DILUPBiCGStab:  Solving for ILambda_193_0, Initial residual = 3.6991714907e-16, Final residual = 1.47267223217e-64, No Iterations 6
DILUPBiCGStab:  Solving for ILambda_194_0, Initial residual = 3.6782869657e-16, Final residual = 4.6658346568e-63, No Iterations 7
DILUPBiCGStab:  Solving for ILambda_195_0, Initial residual = 3.66262357195e-16, Final residual = 1.86648455593e-63, No Iterations 7
DILUPBiCGStab:  Solving for ILambda_196_0, Initial residual = 3.96283861883e-16, Final residual = 1.18092490884e-61, No Iterations 7
DILUPBiCGStab:  Solving for ILambda_197_0, Initial residual = 4.05942954695e-16, Final residual = 1.69426562188e-61, No Iterations 7
DILUPBiCGStab:  Solving for ILambda_198_0, Initial residual = 3.9602280532e-16, Final residual = 2.72272311032e-62, No Iterations 6
DILUPBiCGStab:  Solving for ILambda_199_0, Initial residual = 3.85319486258e-16, Final residual = 3.60454597662e-61, No Iterations 7
DILUPBiCGStab:  Solving for ILambda_200_0, Initial residual = 3.07263574069e-16, Final residual = 2.08088476331e-64, No Iterations 7
DILUPBiCGStab:  Solving for ILambda_201_0, Initial residual = 3.33108173757e-16, Final residual = 3.40464538739e-62, No Iterations 7
DILUPBiCGStab:  Solving for ILambda_202_0, Initial residual = 3.72788771257e-16, Final residual = 7.29269204769e-61, No Iterations 6
DILUPBiCGStab:  Solving for ILambda_203_0, Initial residual = 3.57647490632e-16, Final residual = 3.4664610437e-62, No Iterations 7
DILUPBiCGStab:  Solving for ILambda_204_0, Initial residual = 3.47205228132e-16, Final residual = 1.7494025651e-61, No Iterations 9
DILUPBiCGStab:  Solving for ILambda_205_0, Initial residual = 3.84014203445e-16, Final residual = 1.36815651526e-62, No Iterations 11
DILUPBiCGStab:  Solving for ILambda_206_0, Initial residual = 3.65218130945e-16, Final residual = 1.59849315924e-61, No Iterations 12
DILUPBiCGStab:  Solving for ILambda_207_0, Initial residual = 3.38329305007e-16, Final residual = 4.0936764895e-61, No Iterations 12
DILUPBiCGStab:  Solving for ILambda_208_0, Initial residual = 3.88191108445e-16, Final residual = 2.0085012494e-61, No Iterations 13
DILUPBiCGStab:  Solving for ILambda_209_0, Initial residual = 3.42506210007e-16, Final residual = 5.18777636752e-61, No Iterations 13
DILUPBiCGStab:  Solving for ILambda_210_0, Initial residual = 3.82708920632e-16, Final residual = 9.9459245929e-62, No Iterations 13
DILUPBiCGStab:  Solving for ILambda_211_0, Initial residual = 3.8871322157e-16, Final residual = 2.90985654537e-62, No Iterations 13
DILUPBiCGStab:  Solving for ILambda_212_0, Initial residual = 3.45116775632e-16, Final residual = 4.95800712762e-62, No Iterations 12
DILUPBiCGStab:  Solving for ILambda_213_0, Initial residual = 3.56864320944e-16, Final residual = 1.95843127417e-62, No Iterations 12
DILUPBiCGStab:  Solving for ILambda_214_0, Initial residual = 3.34674513132e-16, Final residual = 2.58431157524e-61, No Iterations 11
DILUPBiCGStab:  Solving for ILambda_215_0, Initial residual = 3.73832997507e-16, Final residual = 3.10914897369e-61, No Iterations 9
DILUPBiCGStab:  Solving for ILambda_216_0, Initial residual = 3.49554737194e-16, Final residual = 2.76428457324e-64, No Iterations 2
DILUPBiCGStab:  Solving for ILambda_217_0, Initial residual = 3.52687415944e-16, Final residual = 6.05218007695e-64, No Iterations 2
DILUPBiCGStab:  Solving for ILambda_218_0, Initial residual = 3.58169603757e-16, Final residual = 2.75847805623e-64, No Iterations 2
DILUPBiCGStab:  Solving for ILambda_219_0, Initial residual = 3.43289379694e-16, Final residual = 2.24520912678e-64, No Iterations 2
DILUPBiCGStab:  Solving for ILambda_220_0, Initial residual = 3.80620468132e-16, Final residual = 3.60344489072e-64, No Iterations 2
DILUPBiCGStab:  Solving for ILambda_221_0, Initial residual = 3.51121076569e-16, Final residual = 9.09054144017e-64, No Iterations 2
DILUPBiCGStab:  Solving for ILambda_222_0, Initial residual = 3.89496391258e-16, Final residual = 4.83365595405e-64, No Iterations 2
DILUPBiCGStab:  Solving for ILambda_223_0, Initial residual = 3.45638888757e-16, Final residual = 2.75062049892e-64, No Iterations 2
DILUPBiCGStab:  Solving for ILambda_224_0, Initial residual = 3.54775868444e-16, Final residual = 5.77744058061e-64, No Iterations 2
DILUPBiCGStab:  Solving for ILambda_225_0, Initial residual = 3.52165302819e-16, Final residual = 2.59848955662e-64, No Iterations 2
DILUPBiCGStab:  Solving for ILambda_226_0, Initial residual = 3.64434961257e-16, Final residual = 2.89186397444e-64, No Iterations 2
DILUPBiCGStab:  Solving for ILambda_227_0, Initial residual = 3.8035941157e-16, Final residual = 2.98827491587e-64, No Iterations 2
DILUPBiCGStab:  Solving for ILambda_228_0, Initial residual = 3.50598963444e-16, Final residual = 9.63553258842e-61, No Iterations 9
DILUPBiCGStab:  Solving for ILambda_229_0, Initial residual = 3.34674513132e-16, Final residual = 1.6093941013e-62, No Iterations 11
DILUPBiCGStab:  Solving for ILambda_230_0, Initial residual = 3.29192325319e-16, Final residual = 9.50239487035e-63, No Iterations 12
DILUPBiCGStab:  Solving for ILambda_231_0, Initial residual = 3.75399336882e-16, Final residual = 2.20556629064e-62, No Iterations 12
DILUPBiCGStab:  Solving for ILambda_232_0, Initial residual = 3.93673296258e-16, Final residual = 5.72142605814e-62, No Iterations 13
DILUPBiCGStab:  Solving for ILambda_233_0, Initial residual = 3.52165302819e-16, Final residual = 4.85044852801e-62, No Iterations 13
DILUPBiCGStab:  Solving for ILambda_234_0, Initial residual = 3.23449080944e-16, Final residual = 6.95711469476e-62, No Iterations 13
DILUPBiCGStab:  Solving for ILambda_235_0, Initial residual = 3.51121076569e-16, Final residual = 1.79089495756e-62, No Iterations 13
DILUPBiCGStab:  Solving for ILambda_236_0, Initial residual = 3.56081151257e-16, Final residual = 4.83872077624e-61, No Iterations 12
DILUPBiCGStab:  Solving for ILambda_237_0, Initial residual = 3.51121076569e-16, Final residual = 9.50331381333e-62, No Iterations 12
DILUPBiCGStab:  Solving for ILambda_238_0, Initial residual = 3.67567640007e-16, Final residual = 4.58640788734e-62, No Iterations 11
DILUPBiCGStab:  Solving for ILambda_239_0, Initial residual = 3.7200560157e-16, Final residual = 2.63308704436e-61, No Iterations 9
DILUPBiCGStab:  Solving for ILambda_240_0, Initial residual = 1.36271525628e-16, Final residual = 1.90427910382e-63, No Iterations 6
DILUPBiCGStab:  Solving for ILambda_241_0, Initial residual = 1.63421408128e-16, Final residual = 5.91079782448e-61, No Iterations 5
DILUPBiCGStab:  Solving for ILambda_242_0, Initial residual = 1.32877790315e-16, Final residual = 2.2742830312e-64, No Iterations 6
DILUPBiCGStab:  Solving for ILambda_243_0, Initial residual = 1.4384216594e-16, Final residual = 1.99331004105e-61, No Iterations 6
DILUPBiCGStab:  Solving for ILambda_244_0, Initial residual = 1.4593061844e-16, Final residual = 1.20932457829e-61, No Iterations 5
DILUPBiCGStab:  Solving for ILambda_245_0, Initial residual = 1.50368580003e-16, Final residual = 6.94451113112e-63, No Iterations 6
DILUPBiCGStab:  Solving for ILambda_246_0, Initial residual = 1.68120426253e-16, Final residual = 7.41318321377e-63, No Iterations 6
DILUPBiCGStab:  Solving for ILambda_247_0, Initial residual = 1.86655442191e-16, Final residual = 5.70004059291e-61, No Iterations 6
DILUPBiCGStab:  Solving for ILambda_248_0, Initial residual = 1.46713788128e-16, Final residual = 3.06678652884e-62, No Iterations 6
DILUPBiCGStab:  Solving for ILambda_249_0, Initial residual = 1.29745111565e-16, Final residual = 2.9573173631e-64, No Iterations 6
DILUPBiCGStab:  Solving for ILambda_250_0, Initial residual = 1.68642539378e-16, Final residual = 2.7027660505e-61, No Iterations 5
DILUPBiCGStab:  Solving for ILambda_251_0, Initial residual = 1.4279793969e-16, Final residual = 1.19215010905e-61, No Iterations 6
DILUPBiCGStab:  Solving for ILambda_252_0, Initial residual = 1.33660960003e-16, Final residual = 5.34837594912e-63, No Iterations 8
DILUPBiCGStab:  Solving for ILambda_253_0, Initial residual = 1.64726690941e-16, Final residual = 2.42438720404e-62, No Iterations 9
DILUPBiCGStab:  Solving for ILambda_254_0, Initial residual = 1.36010469065e-16, Final residual = 1.13618040275e-61, No Iterations 9
DILUPBiCGStab:  Solving for ILambda_255_0, Initial residual = 1.2609031969e-16, Final residual = 3.26852738357e-63, No Iterations 10
DILUPBiCGStab:  Solving for ILambda_256_0, Initial residual = 1.25307150002e-16, Final residual = 2.98243958306e-62, No Iterations 10
DILUPBiCGStab:  Solving for ILambda_257_0, Initial residual = 1.4906329719e-16, Final residual = 3.53479703561e-63, No Iterations 10
DILUPBiCGStab:  Solving for ILambda_258_0, Initial residual = 1.73341557503e-16, Final residual = 1.00509114206e-61, No Iterations 10
DILUPBiCGStab:  Solving for ILambda_259_0, Initial residual = 1.44364279065e-16, Final residual = 1.70033418138e-61, No Iterations 10
DILUPBiCGStab:  Solving for ILambda_260_0, Initial residual = 1.63421408128e-16, Final residual = 9.31748648024e-63, No Iterations 10
DILUPBiCGStab:  Solving for ILambda_261_0, Initial residual = 1.2922299844e-16, Final residual = 8.18423016383e-63, No Iterations 9
DILUPBiCGStab:  Solving for ILambda_262_0, Initial residual = 1.63160351566e-16, Final residual = 2.42344042625e-63, No Iterations 9
DILUPBiCGStab:  Solving for ILambda_263_0, Initial residual = 1.44103222503e-16, Final residual = 1.87604700013e-61, No Iterations 7
DILUPBiCGStab:  Solving for ILambda_264_0, Initial residual = 1.33138846878e-16, Final residual = 1.14035738577e-64, No Iterations 2
DILUPBiCGStab:  Solving for ILambda_265_0, Initial residual = 1.68642539378e-16, Final residual = 1.48210716902e-64, No Iterations 2
DILUPBiCGStab:  Solving for ILambda_266_0, Initial residual = 1.46191675003e-16, Final residual = 2.11127893796e-64, No Iterations 2
DILUPBiCGStab:  Solving for ILambda_267_0, Initial residual = 1.37315751878e-16, Final residual = 1.39193567923e-64, No Iterations 2
DILUPBiCGStab:  Solving for ILambda_268_0, Initial residual = 1.25568206565e-16, Final residual = 2.14146603394e-64, No Iterations 2
DILUPBiCGStab:  Solving for ILambda_269_0, Initial residual = 1.58461333441e-16, Final residual = 1.75441673461e-64, No Iterations 2
DILUPBiCGStab:  Solving for ILambda_270_0, Initial residual = 1.68381482816e-16, Final residual = 1.63932171349e-64, No Iterations 2
DILUPBiCGStab:  Solving for ILambda_271_0, Initial residual = 1.33660960003e-16, Final residual = 1.68229101501e-64, No Iterations 2
DILUPBiCGStab:  Solving for ILambda_272_0, Initial residual = 1.37837865003e-16, Final residual = 1.59046708744e-64, No Iterations 2
DILUPBiCGStab:  Solving for ILambda_273_0, Initial residual = 1.34183073128e-16, Final residual = 1.50009541126e-64, No Iterations 2
DILUPBiCGStab:  Solving for ILambda_274_0, Initial residual = 1.42536883128e-16, Final residual = 1.44251734825e-64, No Iterations 2
DILUPBiCGStab:  Solving for ILambda_275_0, Initial residual = 1.33660960003e-16, Final residual = 1.33676502899e-64, No Iterations 2
DILUPBiCGStab:  Solving for ILambda_276_0, Initial residual = 1.55589711253e-16, Final residual = 2.30008833417e-61, No Iterations 7
DILUPBiCGStab:  Solving for ILambda_277_0, Initial residual = 1.68642539378e-16, Final residual = 3.09414689798e-62, No Iterations 9
DILUPBiCGStab:  Solving for ILambda_278_0, Initial residual = 1.48280127503e-16, Final residual = 1.57660936334e-62, No Iterations 9
DILUPBiCGStab:  Solving for ILambda_279_0, Initial residual = 1.44103222503e-16, Final residual = 9.0982220383e-61, No Iterations 9
DILUPBiCGStab:  Solving for ILambda_280_0, Initial residual = 1.25829263127e-16, Final residual = 6.99300296355e-62, No Iterations 10
DILUPBiCGStab:  Solving for ILambda_281_0, Initial residual = 1.45669561878e-16, Final residual = 5.95681573297e-61, No Iterations 10
DILUPBiCGStab:  Solving for ILambda_282_0, Initial residual = 1.60288729378e-16, Final residual = 4.97989705803e-63, No Iterations 10
DILUPBiCGStab:  Solving for ILambda_283_0, Initial residual = 1.35227299378e-16, Final residual = 1.91355991808e-61, No Iterations 10
DILUPBiCGStab:  Solving for ILambda_284_0, Initial residual = 1.45408505315e-16, Final residual = 5.42449437881e-63, No Iterations 10
DILUPBiCGStab:  Solving for ILambda_285_0, Initial residual = 1.47758014378e-16, Final residual = 3.64336489014e-61, No Iterations 9
DILUPBiCGStab:  Solving for ILambda_286_0, Initial residual = 1.28961941878e-16, Final residual = 1.27874110663e-62, No Iterations 9
DILUPBiCGStab:  Solving for ILambda_287_0, Initial residual = 1.44625335628e-16, Final residual = 1.52622828829e-62, No Iterations 8
min/max(T) = 1000, 1000
ExecutionTime = 1.85 s  ClockTime = 2 s

writeObjects writeObjects1.writeObjects write:
    writing object a
    writing object qem
End

