/*---------------------------------------------------------------------------*\
| =========                 |                                                 |
| \\      /  F ield         | OpenFOAM: The Open Source CFD Toolbox           |
|  \\    /   O peration     | Version:  2306                                  |
|   \\  /    A nd           | Website:  www.openfoam.com                      |
|    \\/     M anipulation  |                                                 |
\*---------------------------------------------------------------------------*/
Build  : _fbf00d6b-20230626 OPENFOAM=2306 version=2306
Arch   : "LSB;label=32;scalar=64"
Exec   : fireRADFoam_MaCFP
Date   : Mar 12 2024
Time   : 19:31:57
Host   : pop-os
PID    : 173292
I/O    : uncollated
Case   : /home/rafay/Desktop/Study/Radiative_Heat_Transfer/Local_copy_RHT2324/01_Projects/02_Rafay/Case_1_q1D_SolidAngle/new_case3/th_6-ph_12/tau_0.05/res_2
nProcs : 1
trapFpe: Floating point exception trapping enabled (FOAM_SIGFPE).
fileModificationChecking : Monitoring run-time modified files using timeStampMaster (fileModificationSkew 5, maxFileModificationPolls 20)
allowSystemOperations : Allowing user-supplied system call operations

// * * * * * * * * * * * * * * * * * * * * * * * * * * * * * * * * * * * * * //
Create time

Create mesh for time = 0


PIMPLE: no residual control data found. Calculations will employ 10 corrector loops

Reading thermophysical properties

Selecting thermodynamics package 
{
    type            hePsiThermo;
    mixture         singleStepReactingMixture;
    transport       sutherland;
    thermo          janaf;
    energy          sensibleEnthalpy;
    equationOfState perfectGas;
    specie          specie;
}

Selecting chemistryReader foamChemistryReader
    elements not defined in "/home/rafay/Desktop/Study/Radiative_Heat_Transfer/Local_copy_RHT2324/01_Projects/02_Rafay/Case_1_q1D_SolidAngle/new_case3/th_6-ph_12/tau_0.05/res_2/constant/reactions"
Fuel heat of combustion :47168962.4726
stoichiometric air-fuel ratio :14.6914056505
stoichiometric oxygen-fuel ratio :3.42181919285
Maximum products mass concentrations:
    H2O: 0.0818486943001
    CO2: 0.199950099979
    N2: 0.718201205721
Creating component thermo properties:
    multi-component carrier - 6 species
    no liquid components
    no solid components
Creating field rho


Reading field U

Reading/calculating face flux field phi

Selecting radiationModel fvDOM
Selecting absorptionEmissionModel constantAbsorptionEmission
Selecting scatterModel none
Selecting sootModel none
fvDOM : Allocated 288 rays with average orientation:
	I0 : dAve : 	(0.000387488209079 0.00591192763451 0.0163624617374) : omega : 	0.0175372336349 : d : 	(0.0169275754541 0.25826489366 0.965925826289)
	I1 : dAve : 	(0.00115583459655 0.00581077291359 0.0163624617374) : omega : 	0.0175372336349 : d : 	(0.050493090853 0.253845909725 0.965925826289)
	I2 : dAve : 	(0.00190440433361 0.00561019425706 0.0163624617374) : omega : 	0.0175372336349 : d : 	(0.083194655468 0.245083551895 0.965925826289)
	I3 : dAve : 	(0.00262038918453 0.00531362362136 0.0163624617374) : omega : 	0.0175372336349 : d : 	(0.114472736462 0.232127746542 0.965925826289)
	I4 : dAve : 	(0.00329153844998 0.00492613541228 0.0163624617374) : omega : 	0.0175372336349 : d : 	(0.143792157198 0.215200171088 0.965925826289)
	I5 : dAve : 	(0.00390636857998 0.00445435966052 0.0163624617374) : omega : 	0.0175372336349 : d : 	(0.170651254257 0.194590461042 0.965925826289)
	I6 : dAve : 	(0.00445435966052 0.00390636857998 0.0163624617374) : omega : 	0.0175372336349 : d : 	(0.194590461042 0.170651254257 0.965925826289)
	I7 : dAve : 	(0.00492613541228 0.00329153844998 0.0163624617374) : omega : 	0.0175372336349 : d : 	(0.215200171088 0.143792157198 0.965925826289)
	I8 : dAve : 	(0.00531362362136 0.00262038918453 0.0163624617374) : omega : 	0.0175372336349 : d : 	(0.232127746542 0.114472736462 0.965925826289)
	I9 : dAve : 	(0.00561019425706 0.00190440433361 0.0163624617374) : omega : 	0.0175372336349 : d : 	(0.245083551895 0.083194655468 0.965925826289)
	I10 : dAve : 	(0.00581077291359 0.00115583459655 0.0163624617374) : omega : 	0.0175372336349 : d : 	(0.253845909725 0.050493090853 0.965925826289)
	I11 : dAve : 	(0.00591192763451 0.000387488209079 0.0163624617374) : omega : 	0.0175372336349 : d : 	(0.25826489366 0.0169275754541 0.965925826289)
	I12 : dAve : 	(0.00591192763451 -0.000387488209079 0.0163624617374) : omega : 	0.0175372336349 : d : 	(0.25826489366 -0.0169275754541 0.965925826289)
	I13 : dAve : 	(0.00581077291359 -0.00115583459655 0.0163624617374) : omega : 	0.0175372336349 : d : 	(0.253845909725 -0.050493090853 0.965925826289)
	I14 : dAve : 	(0.00561019425706 -0.00190440433361 0.0163624617374) : omega : 	0.0175372336349 : d : 	(0.245083551895 -0.083194655468 0.965925826289)
	I15 : dAve : 	(0.00531362362136 -0.00262038918453 0.0163624617374) : omega : 	0.0175372336349 : d : 	(0.232127746542 -0.114472736462 0.965925826289)
	I16 : dAve : 	(0.00492613541228 -0.00329153844998 0.0163624617374) : omega : 	0.0175372336349 : d : 	(0.215200171088 -0.143792157198 0.965925826289)
	I17 : dAve : 	(0.00445435966052 -0.00390636857998 0.0163624617374) : omega : 	0.0175372336349 : d : 	(0.194590461042 -0.170651254257 0.965925826289)
	I18 : dAve : 	(0.00390636857998 -0.00445435966052 0.0163624617374) : omega : 	0.0175372336349 : d : 	(0.170651254257 -0.194590461042 0.965925826289)
	I19 : dAve : 	(0.00329153844998 -0.00492613541228 0.0163624617374) : omega : 	0.0175372336349 : d : 	(0.143792157198 -0.215200171088 0.965925826289)
	I20 : dAve : 	(0.00262038918453 -0.00531362362136 0.0163624617374) : omega : 	0.0175372336349 : d : 	(0.114472736462 -0.232127746542 0.965925826289)
	I21 : dAve : 	(0.00190440433361 -0.00561019425706 0.0163624617374) : omega : 	0.0175372336349 : d : 	(0.083194655468 -0.245083551895 0.965925826289)
	I22 : dAve : 	(0.00115583459655 -0.00581077291359 0.0163624617374) : omega : 	0.0175372336349 : d : 	(0.050493090853 -0.253845909725 0.965925826289)
	I23 : dAve : 	(0.000387488209079 -0.00591192763451 0.0163624617374) : omega : 	0.0175372336349 : d : 	(0.0169275754541 -0.25826489366 0.965925826289)
	I24 : dAve : 	(-0.000387488209079 -0.00591192763451 0.0163624617374) : omega : 	0.0175372336349 : d : 	(-0.0169275754541 -0.25826489366 0.965925826289)
	I25 : dAve : 	(-0.00115583459655 -0.00581077291359 0.0163624617374) : omega : 	0.0175372336349 : d : 	(-0.050493090853 -0.253845909725 0.965925826289)
	I26 : dAve : 	(-0.00190440433361 -0.00561019425706 0.0163624617374) : omega : 	0.0175372336349 : d : 	(-0.083194655468 -0.245083551895 0.965925826289)
	I27 : dAve : 	(-0.00262038918453 -0.00531362362136 0.0163624617374) : omega : 	0.0175372336349 : d : 	(-0.114472736462 -0.232127746542 0.965925826289)
	I28 : dAve : 	(-0.00329153844998 -0.00492613541228 0.0163624617374) : omega : 	0.0175372336349 : d : 	(-0.143792157198 -0.215200171088 0.965925826289)
	I29 : dAve : 	(-0.00390636857998 -0.00445435966052 0.0163624617374) : omega : 	0.0175372336349 : d : 	(-0.170651254257 -0.194590461042 0.965925826289)
	I30 : dAve : 	(-0.00445435966052 -0.00390636857998 0.0163624617374) : omega : 	0.0175372336349 : d : 	(-0.194590461042 -0.170651254257 0.965925826289)
	I31 : dAve : 	(-0.00492613541228 -0.00329153844998 0.0163624617374) : omega : 	0.0175372336349 : d : 	(-0.215200171088 -0.143792157198 0.965925826289)
	I32 : dAve : 	(-0.00531362362136 -0.00262038918453 0.0163624617374) : omega : 	0.0175372336349 : d : 	(-0.232127746542 -0.114472736462 0.965925826289)
	I33 : dAve : 	(-0.00561019425706 -0.00190440433361 0.0163624617374) : omega : 	0.0175372336349 : d : 	(-0.245083551895 -0.083194655468 0.965925826289)
	I34 : dAve : 	(-0.00581077291359 -0.00115583459655 0.0163624617374) : omega : 	0.0175372336349 : d : 	(-0.253845909725 -0.050493090853 0.965925826289)
	I35 : dAve : 	(-0.00591192763451 -0.000387488209079 0.0163624617374) : omega : 	0.0175372336349 : d : 	(-0.25826489366 -0.0169275754541 0.965925826289)
	I36 : dAve : 	(-0.00591192763451 0.000387488209079 0.0163624617374) : omega : 	0.0175372336349 : d : 	(-0.25826489366 0.0169275754541 0.965925826289)
	I37 : dAve : 	(-0.00581077291359 0.00115583459655 0.0163624617374) : omega : 	0.0175372336349 : d : 	(-0.253845909725 0.050493090853 0.965925826289)
	I38 : dAve : 	(-0.00561019425706 0.00190440433361 0.0163624617374) : omega : 	0.0175372336349 : d : 	(-0.245083551895 0.083194655468 0.965925826289)
	I39 : dAve : 	(-0.00531362362136 0.00262038918453 0.0163624617374) : omega : 	0.0175372336349 : d : 	(-0.232127746542 0.114472736462 0.965925826289)
	I40 : dAve : 	(-0.00492613541228 0.00329153844998 0.0163624617374) : omega : 	0.0175372336349 : d : 	(-0.215200171088 0.143792157198 0.965925826289)
	I41 : dAve : 	(-0.00445435966052 0.00390636857998 0.0163624617374) : omega : 	0.0175372336349 : d : 	(-0.194590461042 0.170651254257 0.965925826289)
	I42 : dAve : 	(-0.00390636857998 0.00445435966052 0.0163624617374) : omega : 	0.0175372336349 : d : 	(-0.170651254257 0.194590461042 0.965925826289)
	I43 : dAve : 	(-0.00329153844998 0.00492613541228 0.0163624617374) : omega : 	0.0175372336349 : d : 	(-0.143792157198 0.215200171088 0.965925826289)
	I44 : dAve : 	(-0.00262038918453 0.00531362362136 0.0163624617374) : omega : 	0.0175372336349 : d : 	(-0.114472736462 0.232127746542 0.965925826289)
	I45 : dAve : 	(-0.00190440433361 0.00561019425706 0.0163624617374) : omega : 	0.0175372336349 : d : 	(-0.083194655468 0.245083551895 0.965925826289)
	I46 : dAve : 	(-0.00115583459655 0.00581077291359 0.0163624617374) : omega : 	0.0175372336349 : d : 	(-0.050493090853 0.253845909725 0.965925826289)
	I47 : dAve : 	(-0.000387488209079 0.00591192763451 0.0163624617374) : omega : 	0.0175372336349 : d : 	(-0.0169275754541 0.25826489366 0.965925826289)
	I48 : dAve : 	(0.00223973005487 0.034171677215 0.0327249234749) : omega : 	0.0479126133149 : d : 	(0.0462469961895 0.70559281129 0.707106781187)
	I49 : dAve : 	(0.00668086776241 0.0335869903436 0.0327249234749) : omega : 	0.0479126133149 : d : 	(0.137949689641 0.693519922661 0.707106781187)
	I50 : dAve : 	(0.0110076939702 0.0324276207555 0.0327249234749) : omega : 	0.0479126133149 : d : 	(0.227292025657 0.669580715876 0.707106781187)
	I51 : dAve : 	(0.0151461754823 0.0307134055855 0.0327249234749) : omega : 	0.0479126133149 : d : 	(0.312745332096 0.634184797399 0.707106781187)
	I52 : dAve : 	(0.0190255017326 0.0284736755306 0.0327249234749) : omega : 	0.0479126133149 : d : 	(0.392847479194 0.58793780121 0.707106781187)
	I53 : dAve : 	(0.0225792963734 0.025746752993 0.0327249234749) : omega : 	0.0479126133149 : d : 	(0.466227897004 0.531631026234 0.707106781187)
	I54 : dAve : 	(0.025746752993 0.0225792963734 0.0327249234749) : omega : 	0.0479126133149 : d : 	(0.531631026234 0.466227897004 0.707106781187)
	I55 : dAve : 	(0.0284736755306 0.0190255017326 0.0327249234749) : omega : 	0.0479126133149 : d : 	(0.58793780121 0.392847479194 0.707106781187)
	I56 : dAve : 	(0.0307134055855 0.0151461754823 0.0327249234749) : omega : 	0.0479126133149 : d : 	(0.634184797399 0.312745332096 0.707106781187)
	I57 : dAve : 	(0.0324276207555 0.0110076939702 0.0327249234749) : omega : 	0.0479126133149 : d : 	(0.669580715876 0.227292025657 0.707106781187)
	I58 : dAve : 	(0.0335869903436 0.00668086776241 0.0327249234749) : omega : 	0.0479126133149 : d : 	(0.693519922661 0.137949689641 0.707106781187)
	I59 : dAve : 	(0.034171677215 0.00223973005487 0.0327249234749) : omega : 	0.0479126133149 : d : 	(0.70559281129 0.0462469961895 0.707106781187)
	I60 : dAve : 	(0.034171677215 -0.00223973005487 0.0327249234749) : omega : 	0.0479126133149 : d : 	(0.70559281129 -0.0462469961895 0.707106781187)
	I61 : dAve : 	(0.0335869903436 -0.00668086776241 0.0327249234749) : omega : 	0.0479126133149 : d : 	(0.693519922661 -0.137949689641 0.707106781187)
	I62 : dAve : 	(0.0324276207555 -0.0110076939702 0.0327249234749) : omega : 	0.0479126133149 : d : 	(0.669580715876 -0.227292025657 0.707106781187)
	I63 : dAve : 	(0.0307134055855 -0.0151461754823 0.0327249234749) : omega : 	0.0479126133149 : d : 	(0.634184797399 -0.312745332096 0.707106781187)
	I64 : dAve : 	(0.0284736755306 -0.0190255017326 0.0327249234749) : omega : 	0.0479126133149 : d : 	(0.58793780121 -0.392847479194 0.707106781187)
	I65 : dAve : 	(0.025746752993 -0.0225792963734 0.0327249234749) : omega : 	0.0479126133149 : d : 	(0.531631026234 -0.466227897004 0.707106781187)
	I66 : dAve : 	(0.0225792963734 -0.025746752993 0.0327249234749) : omega : 	0.0479126133149 : d : 	(0.466227897004 -0.531631026234 0.707106781187)
	I67 : dAve : 	(0.0190255017326 -0.0284736755306 0.0327249234749) : omega : 	0.0479126133149 : d : 	(0.392847479194 -0.58793780121 0.707106781187)
	I68 : dAve : 	(0.0151461754823 -0.0307134055855 0.0327249234749) : omega : 	0.0479126133149 : d : 	(0.312745332096 -0.634184797399 0.707106781187)
	I69 : dAve : 	(0.0110076939702 -0.0324276207555 0.0327249234749) : omega : 	0.0479126133149 : d : 	(0.227292025657 -0.669580715876 0.707106781187)
	I70 : dAve : 	(0.00668086776241 -0.0335869903436 0.0327249234749) : omega : 	0.0479126133149 : d : 	(0.137949689641 -0.693519922661 0.707106781187)
	I71 : dAve : 	(0.00223973005487 -0.034171677215 0.0327249234749) : omega : 	0.0479126133149 : d : 	(0.0462469961895 -0.70559281129 0.707106781187)
	I72 : dAve : 	(-0.00223973005487 -0.034171677215 0.0327249234749) : omega : 	0.0479126133149 : d : 	(-0.0462469961895 -0.70559281129 0.707106781187)
	I73 : dAve : 	(-0.00668086776241 -0.0335869903436 0.0327249234749) : omega : 	0.0479126133149 : d : 	(-0.137949689641 -0.693519922661 0.707106781187)
	I74 : dAve : 	(-0.0110076939702 -0.0324276207555 0.0327249234749) : omega : 	0.0479126133149 : d : 	(-0.227292025657 -0.669580715876 0.707106781187)
	I75 : dAve : 	(-0.0151461754823 -0.0307134055855 0.0327249234749) : omega : 	0.0479126133149 : d : 	(-0.312745332096 -0.634184797399 0.707106781187)
	I76 : dAve : 	(-0.0190255017326 -0.0284736755306 0.0327249234749) : omega : 	0.0479126133149 : d : 	(-0.392847479194 -0.58793780121 0.707106781187)
	I77 : dAve : 	(-0.0225792963734 -0.025746752993 0.0327249234749) : omega : 	0.0479126133149 : d : 	(-0.466227897004 -0.531631026234 0.707106781187)
	I78 : dAve : 	(-0.025746752993 -0.0225792963734 0.0327249234749) : omega : 	0.0479126133149 : d : 	(-0.531631026234 -0.466227897004 0.707106781187)
	I79 : dAve : 	(-0.0284736755306 -0.0190255017326 0.0327249234749) : omega : 	0.0479126133149 : d : 	(-0.58793780121 -0.392847479194 0.707106781187)
	I80 : dAve : 	(-0.0307134055855 -0.0151461754823 0.0327249234749) : omega : 	0.0479126133149 : d : 	(-0.634184797399 -0.312745332096 0.707106781187)
	I81 : dAve : 	(-0.0324276207555 -0.0110076939702 0.0327249234749) : omega : 	0.0479126133149 : d : 	(-0.669580715876 -0.227292025657 0.707106781187)
	I82 : dAve : 	(-0.0335869903436 -0.00668086776241 0.0327249234749) : omega : 	0.0479126133149 : d : 	(-0.693519922661 -0.137949689641 0.707106781187)
	I83 : dAve : 	(-0.034171677215 -0.00223973005487 0.0327249234749) : omega : 	0.0479126133149 : d : 	(-0.70559281129 -0.0462469961895 0.707106781187)
	I84 : dAve : 	(-0.034171677215 0.00223973005487 0.0327249234749) : omega : 	0.0479126133149 : d : 	(-0.70559281129 0.0462469961895 0.707106781187)
	I85 : dAve : 	(-0.0335869903436 0.00668086776241 0.0327249234749) : omega : 	0.0479126133149 : d : 	(-0.693519922661 0.137949689641 0.707106781187)
	I86 : dAve : 	(-0.0324276207555 0.0110076939702 0.0327249234749) : omega : 	0.0479126133149 : d : 	(-0.669580715876 0.227292025657 0.707106781187)
	I87 : dAve : 	(-0.0307134055855 0.0151461754823 0.0327249234749) : omega : 	0.0479126133149 : d : 	(-0.634184797399 0.312745332096 0.707106781187)
	I88 : dAve : 	(-0.0284736755306 0.0190255017326 0.0327249234749) : omega : 	0.0479126133149 : d : 	(-0.58793780121 0.392847479194 0.707106781187)
	I89 : dAve : 	(-0.025746752993 0.0225792963734 0.0327249234749) : omega : 	0.0479126133149 : d : 	(-0.531631026234 0.466227897004 0.707106781187)
	I90 : dAve : 	(-0.0225792963734 0.025746752993 0.0327249234749) : omega : 	0.0479126133149 : d : 	(-0.466227897004 0.531631026234 0.707106781187)
	I91 : dAve : 	(-0.0190255017326 0.0284736755306 0.0327249234749) : omega : 	0.0479126133149 : d : 	(-0.392847479194 0.58793780121 0.707106781187)
	I92 : dAve : 	(-0.0151461754823 0.0307134055855 0.0327249234749) : omega : 	0.0479126133149 : d : 	(-0.312745332096 0.634184797399 0.707106781187)
	I93 : dAve : 	(-0.0110076939702 0.0324276207555 0.0327249234749) : omega : 	0.0479126133149 : d : 	(-0.227292025657 0.669580715876 0.707106781187)
	I94 : dAve : 	(-0.00668086776241 0.0335869903436 0.0327249234749) : omega : 	0.0479126133149 : d : 	(-0.137949689641 0.693519922661 0.707106781187)
	I95 : dAve : 	(-0.00223973005487 0.034171677215 0.0327249234749) : omega : 	0.0479126133149 : d : 	(-0.0462469961895 0.70559281129 0.707106781187)
	I96 : dAve : 	(0.00409197190067 0.0624314267954 0.0163624617374) : omega : 	0.0654498469498 : d : 	(0.0631745716435 0.963857704949 0.258819045103)
	I97 : dAve : 	(0.0122059009283 0.0613632077737 0.0163624617374) : omega : 	0.0654498469498 : d : 	(0.188442780494 0.947365832386 0.258819045103)
	I98 : dAve : 	(0.0201109836069 0.0592450472539 0.0163624617374) : omega : 	0.0654498469498 : d : 	(0.310486681125 0.914664267771 0.258819045103)
	I99 : dAve : 	(0.0276719617802 0.0561131875497 0.0163624617374) : omega : 	0.0654498469498 : d : 	(0.427218068558 0.866312543941 0.258819045103)
	I100 : dAve : 	(0.0347594650153 0.052021215649 0.0163624617374) : omega : 	0.0654498469498 : d : 	(0.536639636391 0.803137972298 0.258819045103)
	I101 : dAve : 	(0.0412522241668 0.0470391463256 0.0163624617374) : omega : 	0.0654498469498 : d : 	(0.636879151261 0.726221487276 0.258819045103)
	I102 : dAve : 	(0.0470391463256 0.0412522241668 0.0163624617374) : omega : 	0.0654498469498 : d : 	(0.726221487276 0.636879151261 0.258819045103)
	I103 : dAve : 	(0.052021215649 0.0347594650153 0.0163624617374) : omega : 	0.0654498469498 : d : 	(0.803137972298 0.536639636391 0.258819045103)
	I104 : dAve : 	(0.0561131875497 0.0276719617802 0.0163624617374) : omega : 	0.0654498469498 : d : 	(0.866312543941 0.427218068558 0.258819045103)
	I105 : dAve : 	(0.0592450472539 0.0201109836069 0.0163624617374) : omega : 	0.0654498469498 : d : 	(0.914664267771 0.310486681125 0.258819045103)
	I106 : dAve : 	(0.0613632077737 0.0122059009283 0.0163624617374) : omega : 	0.0654498469498 : d : 	(0.947365832386 0.188442780494 0.258819045103)
	I107 : dAve : 	(0.0624314267954 0.00409197190067 0.0163624617374) : omega : 	0.0654498469498 : d : 	(0.963857704949 0.0631745716435 0.258819045103)
	I108 : dAve : 	(0.0624314267954 -0.00409197190067 0.0163624617374) : omega : 	0.0654498469498 : d : 	(0.963857704949 -0.0631745716435 0.258819045103)
	I109 : dAve : 	(0.0613632077737 -0.0122059009283 0.0163624617374) : omega : 	0.0654498469498 : d : 	(0.947365832386 -0.188442780494 0.258819045103)
	I110 : dAve : 	(0.0592450472539 -0.0201109836069 0.0163624617374) : omega : 	0.0654498469498 : d : 	(0.914664267771 -0.310486681125 0.258819045103)
	I111 : dAve : 	(0.0561131875497 -0.0276719617802 0.0163624617374) : omega : 	0.0654498469498 : d : 	(0.866312543941 -0.427218068558 0.258819045103)
	I112 : dAve : 	(0.052021215649 -0.0347594650153 0.0163624617374) : omega : 	0.0654498469498 : d : 	(0.803137972298 -0.536639636391 0.258819045103)
	I113 : dAve : 	(0.0470391463256 -0.0412522241668 0.0163624617374) : omega : 	0.0654498469498 : d : 	(0.726221487276 -0.636879151261 0.258819045103)
	I114 : dAve : 	(0.0412522241668 -0.0470391463256 0.0163624617374) : omega : 	0.0654498469498 : d : 	(0.636879151261 -0.726221487276 0.258819045103)
	I115 : dAve : 	(0.0347594650153 -0.052021215649 0.0163624617374) : omega : 	0.0654498469498 : d : 	(0.536639636391 -0.803137972298 0.258819045103)
	I116 : dAve : 	(0.0276719617802 -0.0561131875497 0.0163624617374) : omega : 	0.0654498469498 : d : 	(0.427218068558 -0.866312543941 0.258819045103)
	I117 : dAve : 	(0.0201109836069 -0.0592450472539 0.0163624617374) : omega : 	0.0654498469498 : d : 	(0.310486681125 -0.914664267771 0.258819045103)
	I118 : dAve : 	(0.0122059009283 -0.0613632077737 0.0163624617374) : omega : 	0.0654498469498 : d : 	(0.188442780494 -0.947365832386 0.258819045103)
	I119 : dAve : 	(0.00409197190067 -0.0624314267954 0.0163624617374) : omega : 	0.0654498469498 : d : 	(0.0631745716435 -0.963857704949 0.258819045103)
	I120 : dAve : 	(-0.00409197190067 -0.0624314267954 0.0163624617374) : omega : 	0.0654498469498 : d : 	(-0.0631745716435 -0.963857704949 0.258819045103)
	I121 : dAve : 	(-0.0122059009283 -0.0613632077737 0.0163624617374) : omega : 	0.0654498469498 : d : 	(-0.188442780494 -0.947365832386 0.258819045103)
	I122 : dAve : 	(-0.0201109836069 -0.0592450472539 0.0163624617374) : omega : 	0.0654498469498 : d : 	(-0.310486681125 -0.914664267771 0.258819045103)
	I123 : dAve : 	(-0.0276719617802 -0.0561131875497 0.0163624617374) : omega : 	0.0654498469498 : d : 	(-0.427218068558 -0.866312543941 0.258819045103)
	I124 : dAve : 	(-0.0347594650153 -0.052021215649 0.0163624617374) : omega : 	0.0654498469498 : d : 	(-0.536639636391 -0.803137972298 0.258819045103)
	I125 : dAve : 	(-0.0412522241668 -0.0470391463256 0.0163624617374) : omega : 	0.0654498469498 : d : 	(-0.636879151261 -0.726221487276 0.258819045103)
	I126 : dAve : 	(-0.0470391463256 -0.0412522241668 0.0163624617374) : omega : 	0.0654498469498 : d : 	(-0.726221487276 -0.636879151261 0.258819045103)
	I127 : dAve : 	(-0.052021215649 -0.0347594650153 0.0163624617374) : omega : 	0.0654498469498 : d : 	(-0.803137972298 -0.536639636391 0.258819045103)
	I128 : dAve : 	(-0.0561131875497 -0.0276719617802 0.0163624617374) : omega : 	0.0654498469498 : d : 	(-0.866312543941 -0.427218068558 0.258819045103)
	I129 : dAve : 	(-0.0592450472539 -0.0201109836069 0.0163624617374) : omega : 	0.0654498469498 : d : 	(-0.914664267771 -0.310486681125 0.258819045103)
	I130 : dAve : 	(-0.0613632077737 -0.0122059009283 0.0163624617374) : omega : 	0.0654498469498 : d : 	(-0.947365832386 -0.188442780494 0.258819045103)
	I131 : dAve : 	(-0.0624314267954 -0.00409197190067 0.0163624617374) : omega : 	0.0654498469498 : d : 	(-0.963857704949 -0.0631745716435 0.258819045103)
	I132 : dAve : 	(-0.0624314267954 0.00409197190067 0.0163624617374) : omega : 	0.0654498469498 : d : 	(-0.963857704949 0.0631745716435 0.258819045103)
	I133 : dAve : 	(-0.0613632077737 0.0122059009283 0.0163624617374) : omega : 	0.0654498469498 : d : 	(-0.947365832386 0.188442780494 0.258819045103)
	I134 : dAve : 	(-0.0592450472539 0.0201109836069 0.0163624617374) : omega : 	0.0654498469498 : d : 	(-0.914664267771 0.310486681125 0.258819045103)
	I135 : dAve : 	(-0.0561131875497 0.0276719617802 0.0163624617374) : omega : 	0.0654498469498 : d : 	(-0.866312543941 0.427218068558 0.258819045103)
	I136 : dAve : 	(-0.052021215649 0.0347594650153 0.0163624617374) : omega : 	0.0654498469498 : d : 	(-0.803137972298 0.536639636391 0.258819045103)
	I137 : dAve : 	(-0.0470391463256 0.0412522241668 0.0163624617374) : omega : 	0.0654498469498 : d : 	(-0.726221487276 0.636879151261 0.258819045103)
	I138 : dAve : 	(-0.0412522241668 0.0470391463256 0.0163624617374) : omega : 	0.0654498469498 : d : 	(-0.636879151261 0.726221487276 0.258819045103)
	I139 : dAve : 	(-0.0347594650153 0.052021215649 0.0163624617374) : omega : 	0.0654498469498 : d : 	(-0.536639636391 0.803137972298 0.258819045103)
	I140 : dAve : 	(-0.0276719617802 0.0561131875497 0.0163624617374) : omega : 	0.0654498469498 : d : 	(-0.427218068558 0.866312543941 0.258819045103)
	I141 : dAve : 	(-0.0201109836069 0.0592450472539 0.0163624617374) : omega : 	0.0654498469498 : d : 	(-0.310486681125 0.914664267771 0.258819045103)
	I142 : dAve : 	(-0.0122059009283 0.0613632077737 0.0163624617374) : omega : 	0.0654498469498 : d : 	(-0.188442780494 0.947365832386 0.258819045103)
	I143 : dAve : 	(-0.00409197190067 0.0624314267954 0.0163624617374) : omega : 	0.0654498469498 : d : 	(-0.0631745716435 0.963857704949 0.258819045103)
	I144 : dAve : 	(0.00409197190067 0.0624314267954 -0.0163624617374) : omega : 	0.0654498469498 : d : 	(0.0631745716435 0.963857704949 -0.258819045103)
	I145 : dAve : 	(0.0122059009283 0.0613632077737 -0.0163624617374) : omega : 	0.0654498469498 : d : 	(0.188442780494 0.947365832386 -0.258819045103)
	I146 : dAve : 	(0.0201109836069 0.0592450472539 -0.0163624617374) : omega : 	0.0654498469498 : d : 	(0.310486681125 0.914664267771 -0.258819045103)
	I147 : dAve : 	(0.0276719617802 0.0561131875497 -0.0163624617374) : omega : 	0.0654498469498 : d : 	(0.427218068558 0.866312543941 -0.258819045103)
	I148 : dAve : 	(0.0347594650153 0.052021215649 -0.0163624617374) : omega : 	0.0654498469498 : d : 	(0.536639636391 0.803137972298 -0.258819045103)
	I149 : dAve : 	(0.0412522241668 0.0470391463256 -0.0163624617374) : omega : 	0.0654498469498 : d : 	(0.636879151261 0.726221487276 -0.258819045103)
	I150 : dAve : 	(0.0470391463256 0.0412522241668 -0.0163624617374) : omega : 	0.0654498469498 : d : 	(0.726221487276 0.636879151261 -0.258819045103)
	I151 : dAve : 	(0.052021215649 0.0347594650153 -0.0163624617374) : omega : 	0.0654498469498 : d : 	(0.803137972298 0.536639636391 -0.258819045103)
	I152 : dAve : 	(0.0561131875497 0.0276719617802 -0.0163624617374) : omega : 	0.0654498469498 : d : 	(0.866312543941 0.427218068558 -0.258819045103)
	I153 : dAve : 	(0.0592450472539 0.0201109836069 -0.0163624617374) : omega : 	0.0654498469498 : d : 	(0.914664267771 0.310486681125 -0.258819045103)
	I154 : dAve : 	(0.0613632077737 0.0122059009283 -0.0163624617374) : omega : 	0.0654498469498 : d : 	(0.947365832386 0.188442780494 -0.258819045103)
	I155 : dAve : 	(0.0624314267954 0.00409197190067 -0.0163624617374) : omega : 	0.0654498469498 : d : 	(0.963857704949 0.0631745716435 -0.258819045103)
	I156 : dAve : 	(0.0624314267954 -0.00409197190067 -0.0163624617374) : omega : 	0.0654498469498 : d : 	(0.963857704949 -0.0631745716435 -0.258819045103)
	I157 : dAve : 	(0.0613632077737 -0.0122059009283 -0.0163624617374) : omega : 	0.0654498469498 : d : 	(0.947365832386 -0.188442780494 -0.258819045103)
	I158 : dAve : 	(0.0592450472539 -0.0201109836069 -0.0163624617374) : omega : 	0.0654498469498 : d : 	(0.914664267771 -0.310486681125 -0.258819045103)
	I159 : dAve : 	(0.0561131875497 -0.0276719617802 -0.0163624617374) : omega : 	0.0654498469498 : d : 	(0.866312543941 -0.427218068558 -0.258819045103)
	I160 : dAve : 	(0.052021215649 -0.0347594650153 -0.0163624617374) : omega : 	0.0654498469498 : d : 	(0.803137972298 -0.536639636391 -0.258819045103)
	I161 : dAve : 	(0.0470391463256 -0.0412522241668 -0.0163624617374) : omega : 	0.0654498469498 : d : 	(0.726221487276 -0.636879151261 -0.258819045103)
	I162 : dAve : 	(0.0412522241668 -0.0470391463256 -0.0163624617374) : omega : 	0.0654498469498 : d : 	(0.636879151261 -0.726221487276 -0.258819045103)
	I163 : dAve : 	(0.0347594650153 -0.052021215649 -0.0163624617374) : omega : 	0.0654498469498 : d : 	(0.536639636391 -0.803137972298 -0.258819045103)
	I164 : dAve : 	(0.0276719617802 -0.0561131875497 -0.0163624617374) : omega : 	0.0654498469498 : d : 	(0.427218068558 -0.866312543941 -0.258819045103)
	I165 : dAve : 	(0.0201109836069 -0.0592450472539 -0.0163624617374) : omega : 	0.0654498469498 : d : 	(0.310486681125 -0.914664267771 -0.258819045103)
	I166 : dAve : 	(0.0122059009283 -0.0613632077737 -0.0163624617374) : omega : 	0.0654498469498 : d : 	(0.188442780494 -0.947365832386 -0.258819045103)
	I167 : dAve : 	(0.00409197190067 -0.0624314267954 -0.0163624617374) : omega : 	0.0654498469498 : d : 	(0.0631745716435 -0.963857704949 -0.258819045103)
	I168 : dAve : 	(-0.00409197190067 -0.0624314267954 -0.0163624617374) : omega : 	0.0654498469498 : d : 	(-0.0631745716435 -0.963857704949 -0.258819045103)
	I169 : dAve : 	(-0.0122059009283 -0.0613632077737 -0.0163624617374) : omega : 	0.0654498469498 : d : 	(-0.188442780494 -0.947365832386 -0.258819045103)
	I170 : dAve : 	(-0.0201109836069 -0.0592450472539 -0.0163624617374) : omega : 	0.0654498469498 : d : 	(-0.310486681125 -0.914664267771 -0.258819045103)
	I171 : dAve : 	(-0.0276719617802 -0.0561131875497 -0.0163624617374) : omega : 	0.0654498469498 : d : 	(-0.427218068558 -0.866312543941 -0.258819045103)
	I172 : dAve : 	(-0.0347594650153 -0.052021215649 -0.0163624617374) : omega : 	0.0654498469498 : d : 	(-0.536639636391 -0.803137972298 -0.258819045103)
	I173 : dAve : 	(-0.0412522241668 -0.0470391463256 -0.0163624617374) : omega : 	0.0654498469498 : d : 	(-0.636879151261 -0.726221487276 -0.258819045103)
	I174 : dAve : 	(-0.0470391463256 -0.0412522241668 -0.0163624617374) : omega : 	0.0654498469498 : d : 	(-0.726221487276 -0.636879151261 -0.258819045103)
	I175 : dAve : 	(-0.052021215649 -0.0347594650153 -0.0163624617374) : omega : 	0.0654498469498 : d : 	(-0.803137972298 -0.536639636391 -0.258819045103)
	I176 : dAve : 	(-0.0561131875497 -0.0276719617802 -0.0163624617374) : omega : 	0.0654498469498 : d : 	(-0.866312543941 -0.427218068558 -0.258819045103)
	I177 : dAve : 	(-0.0592450472539 -0.0201109836069 -0.0163624617374) : omega : 	0.0654498469498 : d : 	(-0.914664267771 -0.310486681125 -0.258819045103)
	I178 : dAve : 	(-0.0613632077737 -0.0122059009283 -0.0163624617374) : omega : 	0.0654498469498 : d : 	(-0.947365832386 -0.188442780494 -0.258819045103)
	I179 : dAve : 	(-0.0624314267954 -0.00409197190067 -0.0163624617374) : omega : 	0.0654498469498 : d : 	(-0.963857704949 -0.0631745716435 -0.258819045103)
	I180 : dAve : 	(-0.0624314267954 0.00409197190067 -0.0163624617374) : omega : 	0.0654498469498 : d : 	(-0.963857704949 0.0631745716435 -0.258819045103)
	I181 : dAve : 	(-0.0613632077737 0.0122059009283 -0.0163624617374) : omega : 	0.0654498469498 : d : 	(-0.947365832386 0.188442780494 -0.258819045103)
	I182 : dAve : 	(-0.0592450472539 0.0201109836069 -0.0163624617374) : omega : 	0.0654498469498 : d : 	(-0.914664267771 0.310486681125 -0.258819045103)
	I183 : dAve : 	(-0.0561131875497 0.0276719617802 -0.0163624617374) : omega : 	0.0654498469498 : d : 	(-0.866312543941 0.427218068558 -0.258819045103)
	I184 : dAve : 	(-0.052021215649 0.0347594650153 -0.0163624617374) : omega : 	0.0654498469498 : d : 	(-0.803137972298 0.536639636391 -0.258819045103)
	I185 : dAve : 	(-0.0470391463256 0.0412522241668 -0.0163624617374) : omega : 	0.0654498469498 : d : 	(-0.726221487276 0.636879151261 -0.258819045103)
	I186 : dAve : 	(-0.0412522241668 0.0470391463256 -0.0163624617374) : omega : 	0.0654498469498 : d : 	(-0.636879151261 0.726221487276 -0.258819045103)
	I187 : dAve : 	(-0.0347594650153 0.052021215649 -0.0163624617374) : omega : 	0.0654498469498 : d : 	(-0.536639636391 0.803137972298 -0.258819045103)
	I188 : dAve : 	(-0.0276719617802 0.0561131875497 -0.0163624617374) : omega : 	0.0654498469498 : d : 	(-0.427218068558 0.866312543941 -0.258819045103)
	I189 : dAve : 	(-0.0201109836069 0.0592450472539 -0.0163624617374) : omega : 	0.0654498469498 : d : 	(-0.310486681125 0.914664267771 -0.258819045103)
	I190 : dAve : 	(-0.0122059009283 0.0613632077737 -0.0163624617374) : omega : 	0.0654498469498 : d : 	(-0.188442780494 0.947365832386 -0.258819045103)
	I191 : dAve : 	(-0.00409197190067 0.0624314267954 -0.0163624617374) : omega : 	0.0654498469498 : d : 	(-0.0631745716435 0.963857704949 -0.258819045103)
	I192 : dAve : 	(0.00223973005487 0.034171677215 -0.0327249234749) : omega : 	0.0479126133149 : d : 	(0.0462469961895 0.70559281129 -0.707106781187)
	I193 : dAve : 	(0.00668086776241 0.0335869903436 -0.0327249234749) : omega : 	0.0479126133149 : d : 	(0.137949689641 0.693519922661 -0.707106781187)
	I194 : dAve : 	(0.0110076939702 0.0324276207555 -0.0327249234749) : omega : 	0.0479126133149 : d : 	(0.227292025657 0.669580715876 -0.707106781187)
	I195 : dAve : 	(0.0151461754823 0.0307134055855 -0.0327249234749) : omega : 	0.0479126133149 : d : 	(0.312745332096 0.634184797399 -0.707106781187)
	I196 : dAve : 	(0.0190255017326 0.0284736755306 -0.0327249234749) : omega : 	0.0479126133149 : d : 	(0.392847479194 0.58793780121 -0.707106781187)
	I197 : dAve : 	(0.0225792963734 0.025746752993 -0.0327249234749) : omega : 	0.0479126133149 : d : 	(0.466227897004 0.531631026234 -0.707106781187)
	I198 : dAve : 	(0.025746752993 0.0225792963734 -0.0327249234749) : omega : 	0.0479126133149 : d : 	(0.531631026234 0.466227897004 -0.707106781187)
	I199 : dAve : 	(0.0284736755306 0.0190255017326 -0.0327249234749) : omega : 	0.0479126133149 : d : 	(0.58793780121 0.392847479194 -0.707106781187)
	I200 : dAve : 	(0.0307134055855 0.0151461754823 -0.0327249234749) : omega : 	0.0479126133149 : d : 	(0.634184797399 0.312745332096 -0.707106781187)
	I201 : dAve : 	(0.0324276207555 0.0110076939702 -0.0327249234749) : omega : 	0.0479126133149 : d : 	(0.669580715876 0.227292025657 -0.707106781187)
	I202 : dAve : 	(0.0335869903436 0.00668086776241 -0.0327249234749) : omega : 	0.0479126133149 : d : 	(0.693519922661 0.137949689641 -0.707106781187)
	I203 : dAve : 	(0.034171677215 0.00223973005487 -0.0327249234749) : omega : 	0.0479126133149 : d : 	(0.70559281129 0.0462469961895 -0.707106781187)
	I204 : dAve : 	(0.034171677215 -0.00223973005487 -0.0327249234749) : omega : 	0.0479126133149 : d : 	(0.70559281129 -0.0462469961895 -0.707106781187)
	I205 : dAve : 	(0.0335869903436 -0.00668086776241 -0.0327249234749) : omega : 	0.0479126133149 : d : 	(0.693519922661 -0.137949689641 -0.707106781187)
	I206 : dAve : 	(0.0324276207555 -0.0110076939702 -0.0327249234749) : omega : 	0.0479126133149 : d : 	(0.669580715876 -0.227292025657 -0.707106781187)
	I207 : dAve : 	(0.0307134055855 -0.0151461754823 -0.0327249234749) : omega : 	0.0479126133149 : d : 	(0.634184797399 -0.312745332096 -0.707106781187)
	I208 : dAve : 	(0.0284736755306 -0.0190255017326 -0.0327249234749) : omega : 	0.0479126133149 : d : 	(0.58793780121 -0.392847479194 -0.707106781187)
	I209 : dAve : 	(0.025746752993 -0.0225792963734 -0.0327249234749) : omega : 	0.0479126133149 : d : 	(0.531631026234 -0.466227897004 -0.707106781187)
	I210 : dAve : 	(0.0225792963734 -0.025746752993 -0.0327249234749) : omega : 	0.0479126133149 : d : 	(0.466227897004 -0.531631026234 -0.707106781187)
	I211 : dAve : 	(0.0190255017326 -0.0284736755306 -0.0327249234749) : omega : 	0.0479126133149 : d : 	(0.392847479194 -0.58793780121 -0.707106781187)
	I212 : dAve : 	(0.0151461754823 -0.0307134055855 -0.0327249234749) : omega : 	0.0479126133149 : d : 	(0.312745332096 -0.634184797399 -0.707106781187)
	I213 : dAve : 	(0.0110076939702 -0.0324276207555 -0.0327249234749) : omega : 	0.0479126133149 : d : 	(0.227292025657 -0.669580715876 -0.707106781187)
	I214 : dAve : 	(0.00668086776241 -0.0335869903436 -0.0327249234749) : omega : 	0.0479126133149 : d : 	(0.137949689641 -0.693519922661 -0.707106781187)
	I215 : dAve : 	(0.00223973005487 -0.034171677215 -0.0327249234749) : omega : 	0.0479126133149 : d : 	(0.0462469961895 -0.70559281129 -0.707106781187)
	I216 : dAve : 	(-0.00223973005487 -0.034171677215 -0.0327249234749) : omega : 	0.0479126133149 : d : 	(-0.0462469961895 -0.70559281129 -0.707106781187)
	I217 : dAve : 	(-0.00668086776241 -0.0335869903436 -0.0327249234749) : omega : 	0.0479126133149 : d : 	(-0.137949689641 -0.693519922661 -0.707106781187)
	I218 : dAve : 	(-0.0110076939702 -0.0324276207555 -0.0327249234749) : omega : 	0.0479126133149 : d : 	(-0.227292025657 -0.669580715876 -0.707106781187)
	I219 : dAve : 	(-0.0151461754823 -0.0307134055855 -0.0327249234749) : omega : 	0.0479126133149 : d : 	(-0.312745332096 -0.634184797399 -0.707106781187)
	I220 : dAve : 	(-0.0190255017326 -0.0284736755306 -0.0327249234749) : omega : 	0.0479126133149 : d : 	(-0.392847479194 -0.58793780121 -0.707106781187)
	I221 : dAve : 	(-0.0225792963734 -0.025746752993 -0.0327249234749) : omega : 	0.0479126133149 : d : 	(-0.466227897004 -0.531631026234 -0.707106781187)
	I222 : dAve : 	(-0.025746752993 -0.0225792963734 -0.0327249234749) : omega : 	0.0479126133149 : d : 	(-0.531631026234 -0.466227897004 -0.707106781187)
	I223 : dAve : 	(-0.0284736755306 -0.0190255017326 -0.0327249234749) : omega : 	0.0479126133149 : d : 	(-0.58793780121 -0.392847479194 -0.707106781187)
	I224 : dAve : 	(-0.0307134055855 -0.0151461754823 -0.0327249234749) : omega : 	0.0479126133149 : d : 	(-0.634184797399 -0.312745332096 -0.707106781187)
	I225 : dAve : 	(-0.0324276207555 -0.0110076939702 -0.0327249234749) : omega : 	0.0479126133149 : d : 	(-0.669580715876 -0.227292025657 -0.707106781187)
	I226 : dAve : 	(-0.0335869903436 -0.00668086776241 -0.0327249234749) : omega : 	0.0479126133149 : d : 	(-0.693519922661 -0.137949689641 -0.707106781187)
	I227 : dAve : 	(-0.034171677215 -0.00223973005487 -0.0327249234749) : omega : 	0.0479126133149 : d : 	(-0.70559281129 -0.0462469961895 -0.707106781187)
	I228 : dAve : 	(-0.034171677215 0.00223973005487 -0.0327249234749) : omega : 	0.0479126133149 : d : 	(-0.70559281129 0.0462469961895 -0.707106781187)
	I229 : dAve : 	(-0.0335869903436 0.00668086776241 -0.0327249234749) : omega : 	0.0479126133149 : d : 	(-0.693519922661 0.137949689641 -0.707106781187)
	I230 : dAve : 	(-0.0324276207555 0.0110076939702 -0.0327249234749) : omega : 	0.0479126133149 : d : 	(-0.669580715876 0.227292025657 -0.707106781187)
	I231 : dAve : 	(-0.0307134055855 0.0151461754823 -0.0327249234749) : omega : 	0.0479126133149 : d : 	(-0.634184797399 0.312745332096 -0.707106781187)
	I232 : dAve : 	(-0.0284736755306 0.0190255017326 -0.0327249234749) : omega : 	0.0479126133149 : d : 	(-0.58793780121 0.392847479194 -0.707106781187)
	I233 : dAve : 	(-0.025746752993 0.0225792963734 -0.0327249234749) : omega : 	0.0479126133149 : d : 	(-0.531631026234 0.466227897004 -0.707106781187)
	I234 : dAve : 	(-0.0225792963734 0.025746752993 -0.0327249234749) : omega : 	0.0479126133149 : d : 	(-0.466227897004 0.531631026234 -0.707106781187)
	I235 : dAve : 	(-0.0190255017326 0.0284736755306 -0.0327249234749) : omega : 	0.0479126133149 : d : 	(-0.392847479194 0.58793780121 -0.707106781187)
	I236 : dAve : 	(-0.0151461754823 0.0307134055855 -0.0327249234749) : omega : 	0.0479126133149 : d : 	(-0.312745332096 0.634184797399 -0.707106781187)
	I237 : dAve : 	(-0.0110076939702 0.0324276207555 -0.0327249234749) : omega : 	0.0479126133149 : d : 	(-0.227292025657 0.669580715876 -0.707106781187)
	I238 : dAve : 	(-0.00668086776241 0.0335869903436 -0.0327249234749) : omega : 	0.0479126133149 : d : 	(-0.137949689641 0.693519922661 -0.707106781187)
	I239 : dAve : 	(-0.00223973005487 0.034171677215 -0.0327249234749) : omega : 	0.0479126133149 : d : 	(-0.0462469961895 0.70559281129 -0.707106781187)
	I240 : dAve : 	(0.000387488209079 0.00591192763451 -0.0163624617374) : omega : 	0.0175372336349 : d : 	(0.0169275754541 0.25826489366 -0.965925826289)
	I241 : dAve : 	(0.00115583459655 0.00581077291359 -0.0163624617374) : omega : 	0.0175372336349 : d : 	(0.050493090853 0.253845909725 -0.965925826289)
	I242 : dAve : 	(0.00190440433361 0.00561019425706 -0.0163624617374) : omega : 	0.0175372336349 : d : 	(0.083194655468 0.245083551895 -0.965925826289)
	I243 : dAve : 	(0.00262038918453 0.00531362362136 -0.0163624617374) : omega : 	0.0175372336349 : d : 	(0.114472736462 0.232127746542 -0.965925826289)
	I244 : dAve : 	(0.00329153844998 0.00492613541228 -0.0163624617374) : omega : 	0.0175372336349 : d : 	(0.143792157198 0.215200171088 -0.965925826289)
	I245 : dAve : 	(0.00390636857998 0.00445435966052 -0.0163624617374) : omega : 	0.0175372336349 : d : 	(0.170651254257 0.194590461042 -0.965925826289)
	I246 : dAve : 	(0.00445435966052 0.00390636857998 -0.0163624617374) : omega : 	0.0175372336349 : d : 	(0.194590461042 0.170651254257 -0.965925826289)
	I247 : dAve : 	(0.00492613541228 0.00329153844998 -0.0163624617374) : omega : 	0.0175372336349 : d : 	(0.215200171088 0.143792157198 -0.965925826289)
	I248 : dAve : 	(0.00531362362136 0.00262038918453 -0.0163624617374) : omega : 	0.0175372336349 : d : 	(0.232127746542 0.114472736462 -0.965925826289)
	I249 : dAve : 	(0.00561019425706 0.00190440433361 -0.0163624617374) : omega : 	0.0175372336349 : d : 	(0.245083551895 0.083194655468 -0.965925826289)
	I250 : dAve : 	(0.00581077291359 0.00115583459655 -0.0163624617374) : omega : 	0.0175372336349 : d : 	(0.253845909725 0.050493090853 -0.965925826289)
	I251 : dAve : 	(0.00591192763451 0.000387488209079 -0.0163624617374) : omega : 	0.0175372336349 : d : 	(0.25826489366 0.0169275754541 -0.965925826289)
	I252 : dAve : 	(0.00591192763451 -0.000387488209079 -0.0163624617374) : omega : 	0.0175372336349 : d : 	(0.25826489366 -0.0169275754541 -0.965925826289)
	I253 : dAve : 	(0.00581077291359 -0.00115583459655 -0.0163624617374) : omega : 	0.0175372336349 : d : 	(0.253845909725 -0.050493090853 -0.965925826289)
	I254 : dAve : 	(0.00561019425706 -0.00190440433361 -0.0163624617374) : omega : 	0.0175372336349 : d : 	(0.245083551895 -0.083194655468 -0.965925826289)
	I255 : dAve : 	(0.00531362362136 -0.00262038918453 -0.0163624617374) : omega : 	0.0175372336349 : d : 	(0.232127746542 -0.114472736462 -0.965925826289)
	I256 : dAve : 	(0.00492613541228 -0.00329153844998 -0.0163624617374) : omega : 	0.0175372336349 : d : 	(0.215200171088 -0.143792157198 -0.965925826289)
	I257 : dAve : 	(0.00445435966052 -0.00390636857998 -0.0163624617374) : omega : 	0.0175372336349 : d : 	(0.194590461042 -0.170651254257 -0.965925826289)
	I258 : dAve : 	(0.00390636857998 -0.00445435966052 -0.0163624617374) : omega : 	0.0175372336349 : d : 	(0.170651254257 -0.194590461042 -0.965925826289)
	I259 : dAve : 	(0.00329153844998 -0.00492613541228 -0.0163624617374) : omega : 	0.0175372336349 : d : 	(0.143792157198 -0.215200171088 -0.965925826289)
	I260 : dAve : 	(0.00262038918453 -0.00531362362136 -0.0163624617374) : omega : 	0.0175372336349 : d : 	(0.114472736462 -0.232127746542 -0.965925826289)
	I261 : dAve : 	(0.00190440433361 -0.00561019425706 -0.0163624617374) : omega : 	0.0175372336349 : d : 	(0.083194655468 -0.245083551895 -0.965925826289)
	I262 : dAve : 	(0.00115583459655 -0.00581077291359 -0.0163624617374) : omega : 	0.0175372336349 : d : 	(0.050493090853 -0.253845909725 -0.965925826289)
	I263 : dAve : 	(0.000387488209079 -0.00591192763451 -0.0163624617374) : omega : 	0.0175372336349 : d : 	(0.0169275754541 -0.25826489366 -0.965925826289)
	I264 : dAve : 	(-0.000387488209079 -0.00591192763451 -0.0163624617374) : omega : 	0.0175372336349 : d : 	(-0.0169275754541 -0.25826489366 -0.965925826289)
	I265 : dAve : 	(-0.00115583459655 -0.00581077291359 -0.0163624617374) : omega : 	0.0175372336349 : d : 	(-0.050493090853 -0.253845909725 -0.965925826289)
	I266 : dAve : 	(-0.00190440433361 -0.00561019425706 -0.0163624617374) : omega : 	0.0175372336349 : d : 	(-0.083194655468 -0.245083551895 -0.965925826289)
	I267 : dAve : 	(-0.00262038918453 -0.00531362362136 -0.0163624617374) : omega : 	0.0175372336349 : d : 	(-0.114472736462 -0.232127746542 -0.965925826289)
	I268 : dAve : 	(-0.00329153844998 -0.00492613541228 -0.0163624617374) : omega : 	0.0175372336349 : d : 	(-0.143792157198 -0.215200171088 -0.965925826289)
	I269 : dAve : 	(-0.00390636857998 -0.00445435966052 -0.0163624617374) : omega : 	0.0175372336349 : d : 	(-0.170651254257 -0.194590461042 -0.965925826289)
	I270 : dAve : 	(-0.00445435966052 -0.00390636857998 -0.0163624617374) : omega : 	0.0175372336349 : d : 	(-0.194590461042 -0.170651254257 -0.965925826289)
	I271 : dAve : 	(-0.00492613541228 -0.00329153844998 -0.0163624617374) : omega : 	0.0175372336349 : d : 	(-0.215200171088 -0.143792157198 -0.965925826289)
	I272 : dAve : 	(-0.00531362362136 -0.00262038918453 -0.0163624617374) : omega : 	0.0175372336349 : d : 	(-0.232127746542 -0.114472736462 -0.965925826289)
	I273 : dAve : 	(-0.00561019425706 -0.00190440433361 -0.0163624617374) : omega : 	0.0175372336349 : d : 	(-0.245083551895 -0.083194655468 -0.965925826289)
	I274 : dAve : 	(-0.00581077291359 -0.00115583459655 -0.0163624617374) : omega : 	0.0175372336349 : d : 	(-0.253845909725 -0.050493090853 -0.965925826289)
	I275 : dAve : 	(-0.00591192763451 -0.000387488209079 -0.0163624617374) : omega : 	0.0175372336349 : d : 	(-0.25826489366 -0.0169275754541 -0.965925826289)
	I276 : dAve : 	(-0.00591192763451 0.000387488209079 -0.0163624617374) : omega : 	0.0175372336349 : d : 	(-0.25826489366 0.0169275754541 -0.965925826289)
	I277 : dAve : 	(-0.00581077291359 0.00115583459655 -0.0163624617374) : omega : 	0.0175372336349 : d : 	(-0.253845909725 0.050493090853 -0.965925826289)
	I278 : dAve : 	(-0.00561019425706 0.00190440433361 -0.0163624617374) : omega : 	0.0175372336349 : d : 	(-0.245083551895 0.083194655468 -0.965925826289)
	I279 : dAve : 	(-0.00531362362136 0.00262038918453 -0.0163624617374) : omega : 	0.0175372336349 : d : 	(-0.232127746542 0.114472736462 -0.965925826289)
	I280 : dAve : 	(-0.00492613541228 0.00329153844998 -0.0163624617374) : omega : 	0.0175372336349 : d : 	(-0.215200171088 0.143792157198 -0.965925826289)
	I281 : dAve : 	(-0.00445435966052 0.00390636857998 -0.0163624617374) : omega : 	0.0175372336349 : d : 	(-0.194590461042 0.170651254257 -0.965925826289)
	I282 : dAve : 	(-0.00390636857998 0.00445435966052 -0.0163624617374) : omega : 	0.0175372336349 : d : 	(-0.170651254257 0.194590461042 -0.965925826289)
	I283 : dAve : 	(-0.00329153844998 0.00492613541228 -0.0163624617374) : omega : 	0.0175372336349 : d : 	(-0.143792157198 0.215200171088 -0.965925826289)
	I284 : dAve : 	(-0.00262038918453 0.00531362362136 -0.0163624617374) : omega : 	0.0175372336349 : d : 	(-0.114472736462 0.232127746542 -0.965925826289)
	I285 : dAve : 	(-0.00190440433361 0.00561019425706 -0.0163624617374) : omega : 	0.0175372336349 : d : 	(-0.083194655468 0.245083551895 -0.965925826289)
	I286 : dAve : 	(-0.00115583459655 0.00581077291359 -0.0163624617374) : omega : 	0.0175372336349 : d : 	(-0.050493090853 0.253845909725 -0.965925826289)
	I287 : dAve : 	(-0.000387488209079 0.00591192763451 -0.0163624617374) : omega : 	0.0175372336349 : d : 	(-0.0169275754541 0.25826489366 -0.965925826289)
Total omega : 12.5663706144

Courant Number mean: 0 max: 0

Starting time loop

Sampled set:
    data -> csv

Sampled set:
    data -> csv

Sampled surface:
    yNormal -> ensight
        sampledCuttingPlane: yNormal : plane:(0 1 0) (0 0 0) offsets:(0)

Sampled surface:
    zNormal -> ensight
        sampledCuttingPlane: zNormal : plane:(0 0 1) (0 0 0) offsets:(0)

Sampled surface:
    patchAll -> ensight
        sampledPatch: patchAll : patches:(".*WW.*")

deltaT = 1
Time = 1

PIMPLE: iteration 1
Radiation solver iter: 0
DILUPBiCGStab:  Solving for ILambda_0_0, Initial residual = 1, Final residual = 5.84944866734e-76, No Iterations 3
DILUPBiCGStab:  Solving for ILambda_1_0, Initial residual = 1, Final residual = 3.07719091576e-61, No Iterations 2
DILUPBiCGStab:  Solving for ILambda_2_0, Initial residual = 1, Final residual = 8.17732266619e-61, No Iterations 2
DILUPBiCGStab:  Solving for ILambda_3_0, Initial residual = 1, Final residual = 9.32210625394e-61, No Iterations 2
DILUPBiCGStab:  Solving for ILambda_4_0, Initial residual = 1, Final residual = 9.9162295354e-75, No Iterations 3
DILUPBiCGStab:  Solving for ILambda_5_0, Initial residual = 1, Final residual = 2.06585582921e-75, No Iterations 3
DILUPBiCGStab:  Solving for ILambda_6_0, Initial residual = 1, Final residual = 1.7214156317e-75, No Iterations 3
DILUPBiCGStab:  Solving for ILambda_7_0, Initial residual = 1, Final residual = 4.50991514859e-75, No Iterations 3
DILUPBiCGStab:  Solving for ILambda_8_0, Initial residual = 1, Final residual = 8.67186408679e-75, No Iterations 3
DILUPBiCGStab:  Solving for ILambda_9_0, Initial residual = 1, Final residual = 2.04381314394e-75, No Iterations 3
DILUPBiCGStab:  Solving for ILambda_10_0, Initial residual = 1, Final residual = 7.42054674481e-61, No Iterations 2
DILUPBiCGStab:  Solving for ILambda_11_0, Initial residual = 1, Final residual = 9.32459637305e-76, No Iterations 3
DILUPBiCGStab:  Solving for ILambda_12_0, Initial residual = 1, Final residual = 7.28486176592e-61, No Iterations 33
DILUPBiCGStab:  Solving for ILambda_13_0, Initial residual = 1, Final residual = 2.19634179206e-61, No Iterations 48
DILUPBiCGStab:  Solving for ILambda_14_0, Initial residual = 1, Final residual = 5.39708809604e-61, No Iterations 55
DILUPBiCGStab:  Solving for ILambda_15_0, Initial residual = 1, Final residual = 1.6560073577e-61, No Iterations 59
DILUPBiCGStab:  Solving for ILambda_16_0, Initial residual = 1, Final residual = 9.01051628204e-61, No Iterations 61
DILUPBiCGStab:  Solving for ILambda_17_0, Initial residual = 1, Final residual = 1.07881077032e-61, No Iterations 59
DILUPBiCGStab:  Solving for ILambda_18_0, Initial residual = 1, Final residual = 2.24237825575e-61, No Iterations 63
DILUPBiCGStab:  Solving for ILambda_19_0, Initial residual = 1, Final residual = 2.95429225961e-61, No Iterations 62
DILUPBiCGStab:  Solving for ILambda_20_0, Initial residual = 1, Final residual = 8.70474830977e-61, No Iterations 59
DILUPBiCGStab:  Solving for ILambda_21_0, Initial residual = 1, Final residual = 2.69471923048e-61, No Iterations 55
DILUPBiCGStab:  Solving for ILambda_22_0, Initial residual = 1, Final residual = 3.88547705256e-61, No Iterations 46
DILUPBiCGStab:  Solving for ILambda_23_0, Initial residual = 1, Final residual = 7.38823325062e-62, No Iterations 33
DILUPBiCGStab:  Solving for ILambda_24_0, Initial residual = 1, Final residual = 8.24940176293e-61, No Iterations 20
DILUPBiCGStab:  Solving for ILambda_25_0, Initial residual = 1, Final residual = 8.37791480033e-61, No Iterations 20
DILUPBiCGStab:  Solving for ILambda_26_0, Initial residual = 1, Final residual = 5.39778466821e-62, No Iterations 21
DILUPBiCGStab:  Solving for ILambda_27_0, Initial residual = 1, Final residual = 2.66236956555e-62, No Iterations 21
DILUPBiCGStab:  Solving for ILambda_28_0, Initial residual = 1, Final residual = 4.55084367619e-62, No Iterations 21
DILUPBiCGStab:  Solving for ILambda_29_0, Initial residual = 1, Final residual = 1.5402495836e-63, No Iterations 22
DILUPBiCGStab:  Solving for ILambda_30_0, Initial residual = 1, Final residual = 1.97004551707e-61, No Iterations 22
DILUPBiCGStab:  Solving for ILambda_31_0, Initial residual = 1, Final residual = 1.2770563131e-61, No Iterations 22
DILUPBiCGStab:  Solving for ILambda_32_0, Initial residual = 1, Final residual = 5.11548633076e-61, No Iterations 21
DILUPBiCGStab:  Solving for ILambda_33_0, Initial residual = 1, Final residual = 7.7150115483e-62, No Iterations 21
DILUPBiCGStab:  Solving for ILambda_34_0, Initial residual = 1, Final residual = 3.08275822867e-61, No Iterations 21
DILUPBiCGStab:  Solving for ILambda_35_0, Initial residual = 1, Final residual = 1.26190065046e-61, No Iterations 21
DILUPBiCGStab:  Solving for ILambda_36_0, Initial residual = 1, Final residual = 5.80437481137e-61, No Iterations 32
DILUPBiCGStab:  Solving for ILambda_37_0, Initial residual = 1, Final residual = 3.15556459025e-61, No Iterations 47
DILUPBiCGStab:  Solving for ILambda_38_0, Initial residual = 1, Final residual = 1.71130213865e-61, No Iterations 54
DILUPBiCGStab:  Solving for ILambda_39_0, Initial residual = 1, Final residual = 1.9747195654e-61, No Iterations 59
DILUPBiCGStab:  Solving for ILambda_40_0, Initial residual = 1, Final residual = 4.44067543974e-61, No Iterations 62
DILUPBiCGStab:  Solving for ILambda_41_0, Initial residual = 1, Final residual = 2.24109643578e-61, No Iterations 65
DILUPBiCGStab:  Solving for ILambda_42_0, Initial residual = 1, Final residual = 6.17680939097e-61, No Iterations 60
DILUPBiCGStab:  Solving for ILambda_43_0, Initial residual = 1, Final residual = 2.1681539136e-61, No Iterations 63
DILUPBiCGStab:  Solving for ILambda_44_0, Initial residual = 1, Final residual = 3.73592637864e-61, No Iterations 59
DILUPBiCGStab:  Solving for ILambda_45_0, Initial residual = 1, Final residual = 4.45253186297e-61, No Iterations 55
DILUPBiCGStab:  Solving for ILambda_46_0, Initial residual = 1, Final residual = 6.00343452705e-61, No Iterations 48
DILUPBiCGStab:  Solving for ILambda_47_0, Initial residual = 1, Final residual = 5.0894231289e-61, No Iterations 33
DILUPBiCGStab:  Solving for ILambda_48_0, Initial residual = 1, Final residual = 3.80271014872e-74, No Iterations 3
DILUPBiCGStab:  Solving for ILambda_49_0, Initial residual = 1, Final residual = 1.39760076785e-73, No Iterations 3
DILUPBiCGStab:  Solving for ILambda_50_0, Initial residual = 1, Final residual = 7.90682761789e-74, No Iterations 3
DILUPBiCGStab:  Solving for ILambda_51_0, Initial residual = 1, Final residual = 1.4227757581e-72, No Iterations 3
DILUPBiCGStab:  Solving for ILambda_52_0, Initial residual = 1, Final residual = 1.02140059239e-74, No Iterations 3
DILUPBiCGStab:  Solving for ILambda_53_0, Initial residual = 1, Final residual = 1.8856796715e-74, No Iterations 3
DILUPBiCGStab:  Solving for ILambda_54_0, Initial residual = 1, Final residual = 9.60822339899e-74, No Iterations 3
DILUPBiCGStab:  Solving for ILambda_55_0, Initial residual = 1, Final residual = 5.27652002122e-75, No Iterations 3
DILUPBiCGStab:  Solving for ILambda_56_0, Initial residual = 1, Final residual = 4.79950942773e-74, No Iterations 3
DILUPBiCGStab:  Solving for ILambda_57_0, Initial residual = 1, Final residual = 7.54920093722e-74, No Iterations 3
DILUPBiCGStab:  Solving for ILambda_58_0, Initial residual = 1, Final residual = 1.52715425562e-72, No Iterations 3
DILUPBiCGStab:  Solving for ILambda_59_0, Initial residual = 1, Final residual = 8.00163865419e-75, No Iterations 3
DILUPBiCGStab:  Solving for ILambda_60_0, Initial residual = 1, Final residual = 4.61326267225e-61, No Iterations 35
DILUPBiCGStab:  Solving for ILambda_61_0, Initial residual = 1, Final residual = 5.90379641981e-61, No Iterations 49
DILUPBiCGStab:  Solving for ILambda_62_0, Initial residual = 1, Final residual = 5.20992904003e-61, No Iterations 56
DILUPBiCGStab:  Solving for ILambda_63_0, Initial residual = 1, Final residual = 6.91441195617e-62, No Iterations 62
DILUPBiCGStab:  Solving for ILambda_64_0, Initial residual = 1, Final residual = 5.6208791074e-61, No Iterations 64
DILUPBiCGStab:  Solving for ILambda_65_0, Initial residual = 1, Final residual = 5.37071290544e-61, No Iterations 63
DILUPBiCGStab:  Solving for ILambda_66_0, Initial residual = 1, Final residual = 4.68129110258e-61, No Iterations 63
DILUPBiCGStab:  Solving for ILambda_67_0, Initial residual = 1, Final residual = 2.80513632139e-61, No Iterations 64
DILUPBiCGStab:  Solving for ILambda_68_0, Initial residual = 1, Final residual = 9.47804495424e-61, No Iterations 61
DILUPBiCGStab:  Solving for ILambda_69_0, Initial residual = 1, Final residual = 1.46533145732e-61, No Iterations 55
DILUPBiCGStab:  Solving for ILambda_70_0, Initial residual = 1, Final residual = 2.04980759765e-61, No Iterations 47
DILUPBiCGStab:  Solving for ILambda_71_0, Initial residual = 1, Final residual = 9.52964606845e-61, No Iterations 33
DILUPBiCGStab:  Solving for ILambda_72_0, Initial residual = 1, Final residual = 1.76502522443e-61, No Iterations 25
DILUPBiCGStab:  Solving for ILambda_73_0, Initial residual = 1, Final residual = 3.46061560969e-61, No Iterations 26
DILUPBiCGStab:  Solving for ILambda_74_0, Initial residual = 1, Final residual = 6.55233327022e-62, No Iterations 25
DILUPBiCGStab:  Solving for ILambda_75_0, Initial residual = 1, Final residual = 1.99389646916e-62, No Iterations 26
DILUPBiCGStab:  Solving for ILambda_76_0, Initial residual = 1, Final residual = 1.08559878005e-62, No Iterations 27
DILUPBiCGStab:  Solving for ILambda_77_0, Initial residual = 1, Final residual = 1.89240108647e-61, No Iterations 26
DILUPBiCGStab:  Solving for ILambda_78_0, Initial residual = 1, Final residual = 5.81168209248e-61, No Iterations 29
DILUPBiCGStab:  Solving for ILambda_79_0, Initial residual = 1, Final residual = 1.77686392819e-61, No Iterations 28
DILUPBiCGStab:  Solving for ILambda_80_0, Initial residual = 1, Final residual = 6.16391773199e-61, No Iterations 25
DILUPBiCGStab:  Solving for ILambda_81_0, Initial residual = 1, Final residual = 1.64583752419e-61, No Iterations 26
DILUPBiCGStab:  Solving for ILambda_82_0, Initial residual = 1, Final residual = 2.37433447044e-63, No Iterations 26
DILUPBiCGStab:  Solving for ILambda_83_0, Initial residual = 1, Final residual = 8.87987083512e-61, No Iterations 23
DILUPBiCGStab:  Solving for ILambda_84_0, Initial residual = 1, Final residual = 4.35255596692e-61, No Iterations 33
DILUPBiCGStab:  Solving for ILambda_85_0, Initial residual = 1, Final residual = 6.93538434565e-61, No Iterations 47
DILUPBiCGStab:  Solving for ILambda_86_0, Initial residual = 1, Final residual = 2.22843145408e-61, No Iterations 56
DILUPBiCGStab:  Solving for ILambda_87_0, Initial residual = 1, Final residual = 6.68631564795e-61, No Iterations 60
DILUPBiCGStab:  Solving for ILambda_88_0, Initial residual = 1, Final residual = 1.90057695831e-61, No Iterations 64
DILUPBiCGStab:  Solving for ILambda_89_0, Initial residual = 1, Final residual = 7.10960635655e-61, No Iterations 63
DILUPBiCGStab:  Solving for ILambda_90_0, Initial residual = 1, Final residual = 3.54192767285e-61, No Iterations 63
DILUPBiCGStab:  Solving for ILambda_91_0, Initial residual = 1, Final residual = 4.02018430017e-61, No Iterations 64
DILUPBiCGStab:  Solving for ILambda_92_0, Initial residual = 1, Final residual = 9.13789662514e-61, No Iterations 60
DILUPBiCGStab:  Solving for ILambda_93_0, Initial residual = 1, Final residual = 8.26740676877e-61, No Iterations 56
DILUPBiCGStab:  Solving for ILambda_94_0, Initial residual = 1, Final residual = 1.02428476976e-61, No Iterations 49
DILUPBiCGStab:  Solving for ILambda_95_0, Initial residual = 1, Final residual = 2.32519955962e-61, No Iterations 35
DILUPBiCGStab:  Solving for ILambda_96_0, Initial residual = 1, Final residual = 2.38085060255e-74, No Iterations 3
DILUPBiCGStab:  Solving for ILambda_97_0, Initial residual = 1, Final residual = 2.18510269401e-74, No Iterations 3
DILUPBiCGStab:  Solving for ILambda_98_0, Initial residual = 1, Final residual = 5.18163799265e-74, No Iterations 3
DILUPBiCGStab:  Solving for ILambda_99_0, Initial residual = 1, Final residual = 1.30564734137e-73, No Iterations 3
DILUPBiCGStab:  Solving for ILambda_100_0, Initial residual = 1, Final residual = 1.14658380547e-73, No Iterations 3
DILUPBiCGStab:  Solving for ILambda_101_0, Initial residual = 1, Final residual = 1.54161693129e-73, No Iterations 3
DILUPBiCGStab:  Solving for ILambda_102_0, Initial residual = 1, Final residual = 1.59545985579e-73, No Iterations 3
DILUPBiCGStab:  Solving for ILambda_103_0, Initial residual = 1, Final residual = 2.87149969847e-74, No Iterations 3
DILUPBiCGStab:  Solving for ILambda_104_0, Initial residual = 1, Final residual = 3.35759128888e-74, No Iterations 3
DILUPBiCGStab:  Solving for ILambda_105_0, Initial residual = 1, Final residual = 9.322406722e-74, No Iterations 3
DILUPBiCGStab:  Solving for ILambda_106_0, Initial residual = 1, Final residual = 3.50798903277e-74, No Iterations 3
DILUPBiCGStab:  Solving for ILambda_107_0, Initial residual = 1, Final residual = 7.06435801566e-75, No Iterations 3
DILUPBiCGStab:  Solving for ILambda_108_0, Initial residual = 1, Final residual = 9.67772433805e-62, No Iterations 35
DILUPBiCGStab:  Solving for ILambda_109_0, Initial residual = 1, Final residual = 4.18614400249e-61, No Iterations 48
DILUPBiCGStab:  Solving for ILambda_110_0, Initial residual = 1, Final residual = 1.00793970654e-61, No Iterations 55
DILUPBiCGStab:  Solving for ILambda_111_0, Initial residual = 1, Final residual = 2.03679572958e-61, No Iterations 61
DILUPBiCGStab:  Solving for ILambda_112_0, Initial residual = 1, Final residual = 1.12284441253e-61, No Iterations 66
DILUPBiCGStab:  Solving for ILambda_113_0, Initial residual = 1, Final residual = 2.85807962992e-61, No Iterations 66
DILUPBiCGStab:  Solving for ILambda_114_0, Initial residual = 1, Final residual = 6.56264970127e-61, No Iterations 65
DILUPBiCGStab:  Solving for ILambda_115_0, Initial residual = 1, Final residual = 3.93659516969e-61, No Iterations 67
DILUPBiCGStab:  Solving for ILambda_116_0, Initial residual = 1, Final residual = 1.97065181459e-61, No Iterations 60
DILUPBiCGStab:  Solving for ILambda_117_0, Initial residual = 1, Final residual = 5.47736097308e-61, No Iterations 56
DILUPBiCGStab:  Solving for ILambda_118_0, Initial residual = 1, Final residual = 4.79862919471e-61, No Iterations 47
DILUPBiCGStab:  Solving for ILambda_119_0, Initial residual = 1, Final residual = 9.75068012221e-61, No Iterations 34
DILUPBiCGStab:  Solving for ILambda_120_0, Initial residual = 1, Final residual = 7.9867796378e-62, No Iterations 32
DILUPBiCGStab:  Solving for ILambda_121_0, Initial residual = 1, Final residual = 2.94986028045e-62, No Iterations 30
DILUPBiCGStab:  Solving for ILambda_122_0, Initial residual = 1, Final residual = 4.46293536673e-61, No Iterations 35
DILUPBiCGStab:  Solving for ILambda_123_0, Initial residual = 1, Final residual = 2.89951692898e-61, No Iterations 32
DILUPBiCGStab:  Solving for ILambda_124_0, Initial residual = 1, Final residual = 1.25713223784e-62, No Iterations 32
DILUPBiCGStab:  Solving for ILambda_125_0, Initial residual = 1, Final residual = 2.78962491494e-61, No Iterations 32
DILUPBiCGStab:  Solving for ILambda_126_0, Initial residual = 1, Final residual = 2.12659229097e-61, No Iterations 37
DILUPBiCGStab:  Solving for ILambda_127_0, Initial residual = 1, Final residual = 1.81096036475e-61, No Iterations 31
DILUPBiCGStab:  Solving for ILambda_128_0, Initial residual = 1, Final residual = 9.89233887629e-61, No Iterations 33
DILUPBiCGStab:  Solving for ILambda_129_0, Initial residual = 1, Final residual = 9.92445357447e-63, No Iterations 30
DILUPBiCGStab:  Solving for ILambda_130_0, Initial residual = 1, Final residual = 3.23130375975e-61, No Iterations 33
DILUPBiCGStab:  Solving for ILambda_131_0, Initial residual = 1, Final residual = 7.16008612007e-61, No Iterations 32
DILUPBiCGStab:  Solving for ILambda_132_0, Initial residual = 1, Final residual = 2.5703980889e-61, No Iterations 34
DILUPBiCGStab:  Solving for ILambda_133_0, Initial residual = 1, Final residual = 6.31595484927e-61, No Iterations 47
DILUPBiCGStab:  Solving for ILambda_134_0, Initial residual = 1, Final residual = 6.74422048749e-61, No Iterations 56
DILUPBiCGStab:  Solving for ILambda_135_0, Initial residual = 1, Final residual = 8.64908680378e-61, No Iterations 60
DILUPBiCGStab:  Solving for ILambda_136_0, Initial residual = 1, Final residual = 1.18711873565e-61, No Iterations 66
DILUPBiCGStab:  Solving for ILambda_137_0, Initial residual = 1, Final residual = 8.07489783904e-61, No Iterations 64
DILUPBiCGStab:  Solving for ILambda_138_0, Initial residual = 1, Final residual = 2.97590358312e-61, No Iterations 66
DILUPBiCGStab:  Solving for ILambda_139_0, Initial residual = 1, Final residual = 3.82496329048e-61, No Iterations 67
DILUPBiCGStab:  Solving for ILambda_140_0, Initial residual = 1, Final residual = 4.16743680791e-61, No Iterations 61
DILUPBiCGStab:  Solving for ILambda_141_0, Initial residual = 1, Final residual = 1.13016876267e-61, No Iterations 56
DILUPBiCGStab:  Solving for ILambda_142_0, Initial residual = 1, Final residual = 3.30215219124e-61, No Iterations 49
DILUPBiCGStab:  Solving for ILambda_143_0, Initial residual = 1, Final residual = 1.02803124181e-61, No Iterations 35
DILUPBiCGStab:  Solving for ILambda_144_0, Initial residual = 1, Final residual = 3.4645849048e-63, No Iterations 29
DILUPBiCGStab:  Solving for ILambda_145_0, Initial residual = 1, Final residual = 8.69967076564e-61, No Iterations 30
DILUPBiCGStab:  Solving for ILambda_146_0, Initial residual = 1, Final residual = 1.90721310458e-61, No Iterations 28
DILUPBiCGStab:  Solving for ILambda_147_0, Initial residual = 1, Final residual = 2.32251684079e-61, No Iterations 32
DILUPBiCGStab:  Solving for ILambda_148_0, Initial residual = 1, Final residual = 2.69721271916e-61, No Iterations 31
DILUPBiCGStab:  Solving for ILambda_149_0, Initial residual = 1, Final residual = 6.22266614265e-61, No Iterations 30
DILUPBiCGStab:  Solving for ILambda_150_0, Initial residual = 1, Final residual = 2.66621897804e-61, No Iterations 31
DILUPBiCGStab:  Solving for ILambda_151_0, Initial residual = 1, Final residual = 4.84929401426e-63, No Iterations 30
DILUPBiCGStab:  Solving for ILambda_152_0, Initial residual = 1, Final residual = 3.06975529221e-62, No Iterations 30
DILUPBiCGStab:  Solving for ILambda_153_0, Initial residual = 1, Final residual = 4.45676693243e-61, No Iterations 28
DILUPBiCGStab:  Solving for ILambda_154_0, Initial residual = 1, Final residual = 3.63578249639e-61, No Iterations 34
DILUPBiCGStab:  Solving for ILambda_155_0, Initial residual = 1, Final residual = 8.10476677944e-62, No Iterations 29
DILUPBiCGStab:  Solving for ILambda_156_0, Initial residual = 1, Final residual = 2.96166125929e-61, No Iterations 34
DILUPBiCGStab:  Solving for ILambda_157_0, Initial residual = 1, Final residual = 4.63156876637e-61, No Iterations 47
DILUPBiCGStab:  Solving for ILambda_158_0, Initial residual = 1, Final residual = 3.72570555374e-61, No Iterations 55
DILUPBiCGStab:  Solving for ILambda_159_0, Initial residual = 1, Final residual = 2.60646941942e-61, No Iterations 61
DILUPBiCGStab:  Solving for ILambda_160_0, Initial residual = 1, Final residual = 6.64848756622e-61, No Iterations 67
DILUPBiCGStab:  Solving for ILambda_161_0, Initial residual = 1, Final residual = 4.48835624557e-61, No Iterations 67
DILUPBiCGStab:  Solving for ILambda_162_0, Initial residual = 1, Final residual = 1.3271500654e-61, No Iterations 67
DILUPBiCGStab:  Solving for ILambda_163_0, Initial residual = 1, Final residual = 2.35677664507e-61, No Iterations 67
DILUPBiCGStab:  Solving for ILambda_164_0, Initial residual = 1, Final residual = 1.30788821572e-61, No Iterations 64
DILUPBiCGStab:  Solving for ILambda_165_0, Initial residual = 1, Final residual = 3.43873648393e-61, No Iterations 57
DILUPBiCGStab:  Solving for ILambda_166_0, Initial residual = 1, Final residual = 2.44055894403e-61, No Iterations 49
DILUPBiCGStab:  Solving for ILambda_167_0, Initial residual = 1, Final residual = 6.62578238844e-62, No Iterations 36
DILUPBiCGStab:  Solving for ILambda_168_0, Initial residual = 1, Final residual = 6.52300964466e-74, No Iterations 3
DILUPBiCGStab:  Solving for ILambda_169_0, Initial residual = 1, Final residual = 4.81761684198e-74, No Iterations 3
DILUPBiCGStab:  Solving for ILambda_170_0, Initial residual = 1, Final residual = 4.31167263132e-74, No Iterations 3
DILUPBiCGStab:  Solving for ILambda_171_0, Initial residual = 1, Final residual = 9.73408366422e-72, No Iterations 3
DILUPBiCGStab:  Solving for ILambda_172_0, Initial residual = 1, Final residual = 8.14483516964e-74, No Iterations 3
DILUPBiCGStab:  Solving for ILambda_173_0, Initial residual = 1, Final residual = 1.64335349359e-74, No Iterations 3
DILUPBiCGStab:  Solving for ILambda_174_0, Initial residual = 1, Final residual = 4.21267007543e-73, No Iterations 3
DILUPBiCGStab:  Solving for ILambda_175_0, Initial residual = 1, Final residual = 1.64277268078e-74, No Iterations 3
DILUPBiCGStab:  Solving for ILambda_176_0, Initial residual = 1, Final residual = 3.75326261608e-74, No Iterations 3
DILUPBiCGStab:  Solving for ILambda_177_0, Initial residual = 1, Final residual = 3.09227657115e-74, No Iterations 3
DILUPBiCGStab:  Solving for ILambda_178_0, Initial residual = 1, Final residual = 8.93898887405e-73, No Iterations 3
DILUPBiCGStab:  Solving for ILambda_179_0, Initial residual = 1, Final residual = 3.73739479635e-74, No Iterations 3
DILUPBiCGStab:  Solving for ILambda_180_0, Initial residual = 1, Final residual = 9.70564099134e-62, No Iterations 36
DILUPBiCGStab:  Solving for ILambda_181_0, Initial residual = 1, Final residual = 5.51783918452e-61, No Iterations 49
DILUPBiCGStab:  Solving for ILambda_182_0, Initial residual = 1, Final residual = 1.6651448743e-61, No Iterations 58
DILUPBiCGStab:  Solving for ILambda_183_0, Initial residual = 1, Final residual = 6.92436735668e-61, No Iterations 62
DILUPBiCGStab:  Solving for ILambda_184_0, Initial residual = 1, Final residual = 4.20104531283e-61, No Iterations 67
DILUPBiCGStab:  Solving for ILambda_185_0, Initial residual = 1, Final residual = 5.55440266708e-61, No Iterations 68
DILUPBiCGStab:  Solving for ILambda_186_0, Initial residual = 1, Final residual = 2.63781008289e-61, No Iterations 68
DILUPBiCGStab:  Solving for ILambda_187_0, Initial residual = 1, Final residual = 1.32782536129e-61, No Iterations 67
DILUPBiCGStab:  Solving for ILambda_188_0, Initial residual = 1, Final residual = 6.34944121929e-61, No Iterations 62
DILUPBiCGStab:  Solving for ILambda_189_0, Initial residual = 1, Final residual = 1.36590456857e-61, No Iterations 55
DILUPBiCGStab:  Solving for ILambda_190_0, Initial residual = 1, Final residual = 1.3350229982e-61, No Iterations 47
DILUPBiCGStab:  Solving for ILambda_191_0, Initial residual = 1, Final residual = 7.87776233522e-62, No Iterations 35
DILUPBiCGStab:  Solving for ILambda_192_0, Initial residual = 1, Final residual = 1.57710096726e-61, No Iterations 27
DILUPBiCGStab:  Solving for ILambda_193_0, Initial residual = 1, Final residual = 1.96495856629e-61, No Iterations 32
DILUPBiCGStab:  Solving for ILambda_194_0, Initial residual = 1, Final residual = 2.06977720013e-63, No Iterations 29
DILUPBiCGStab:  Solving for ILambda_195_0, Initial residual = 1, Final residual = 5.77566249683e-61, No Iterations 31
DILUPBiCGStab:  Solving for ILambda_196_0, Initial residual = 1, Final residual = 9.68219453683e-62, No Iterations 31
DILUPBiCGStab:  Solving for ILambda_197_0, Initial residual = 1, Final residual = 4.1289129877e-62, No Iterations 30
DILUPBiCGStab:  Solving for ILambda_198_0, Initial residual = 1, Final residual = 3.31784100815e-61, No Iterations 32
DILUPBiCGStab:  Solving for ILambda_199_0, Initial residual = 1, Final residual = 1.10808262178e-62, No Iterations 32
DILUPBiCGStab:  Solving for ILambda_200_0, Initial residual = 1, Final residual = 9.83351400495e-62, No Iterations 30
DILUPBiCGStab:  Solving for ILambda_201_0, Initial residual = 1, Final residual = 2.02386970697e-61, No Iterations 32
DILUPBiCGStab:  Solving for ILambda_202_0, Initial residual = 1, Final residual = 3.34896464792e-61, No Iterations 32
DILUPBiCGStab:  Solving for ILambda_203_0, Initial residual = 1, Final residual = 2.17356867372e-61, No Iterations 26
DILUPBiCGStab:  Solving for ILambda_204_0, Initial residual = 1, Final residual = 3.44933064458e-61, No Iterations 34
DILUPBiCGStab:  Solving for ILambda_205_0, Initial residual = 1, Final residual = 6.91031621572e-62, No Iterations 47
DILUPBiCGStab:  Solving for ILambda_206_0, Initial residual = 1, Final residual = 6.58900498679e-62, No Iterations 56
DILUPBiCGStab:  Solving for ILambda_207_0, Initial residual = 1, Final residual = 1.69186661115e-61, No Iterations 62
DILUPBiCGStab:  Solving for ILambda_208_0, Initial residual = 1, Final residual = 7.23978834318e-61, No Iterations 65
DILUPBiCGStab:  Solving for ILambda_209_0, Initial residual = 1, Final residual = 1.23718409756e-61, No Iterations 64
DILUPBiCGStab:  Solving for ILambda_210_0, Initial residual = 1, Final residual = 5.38389966565e-61, No Iterations 66
DILUPBiCGStab:  Solving for ILambda_211_0, Initial residual = 1, Final residual = 1.28265526588e-61, No Iterations 67
DILUPBiCGStab:  Solving for ILambda_212_0, Initial residual = 1, Final residual = 6.98268596979e-61, No Iterations 62
DILUPBiCGStab:  Solving for ILambda_213_0, Initial residual = 1, Final residual = 1.06896643832e-61, No Iterations 58
DILUPBiCGStab:  Solving for ILambda_214_0, Initial residual = 1, Final residual = 3.16625656119e-61, No Iterations 50
DILUPBiCGStab:  Solving for ILambda_215_0, Initial residual = 1, Final residual = 5.75688490832e-61, No Iterations 35
DILUPBiCGStab:  Solving for ILambda_216_0, Initial residual = 1, Final residual = 1.00337462387e-73, No Iterations 3
DILUPBiCGStab:  Solving for ILambda_217_0, Initial residual = 1, Final residual = 1.58874570134e-74, No Iterations 3
DILUPBiCGStab:  Solving for ILambda_218_0, Initial residual = 1, Final residual = 5.11136317124e-73, No Iterations 3
DILUPBiCGStab:  Solving for ILambda_219_0, Initial residual = 1, Final residual = 1.17738941351e-73, No Iterations 3
DILUPBiCGStab:  Solving for ILambda_220_0, Initial residual = 1, Final residual = 8.01841395096e-74, No Iterations 3
DILUPBiCGStab:  Solving for ILambda_221_0, Initial residual = 1, Final residual = 3.01599344935e-73, No Iterations 3
DILUPBiCGStab:  Solving for ILambda_222_0, Initial residual = 1, Final residual = 1.82504175079e-72, No Iterations 3
DILUPBiCGStab:  Solving for ILambda_223_0, Initial residual = 1, Final residual = 4.91634998776e-74, No Iterations 3
DILUPBiCGStab:  Solving for ILambda_224_0, Initial residual = 1, Final residual = 2.36990283052e-73, No Iterations 3
DILUPBiCGStab:  Solving for ILambda_225_0, Initial residual = 1, Final residual = 9.47689304059e-75, No Iterations 3
DILUPBiCGStab:  Solving for ILambda_226_0, Initial residual = 1, Final residual = 7.79168353664e-75, No Iterations 3
DILUPBiCGStab:  Solving for ILambda_227_0, Initial residual = 1, Final residual = 4.31303743292e-74, No Iterations 3
DILUPBiCGStab:  Solving for ILambda_228_0, Initial residual = 1, Final residual = 5.67965674863e-61, No Iterations 35
DILUPBiCGStab:  Solving for ILambda_229_0, Initial residual = 1, Final residual = 1.51559439744e-61, No Iterations 50
DILUPBiCGStab:  Solving for ILambda_230_0, Initial residual = 1, Final residual = 2.87563388712e-62, No Iterations 58
DILUPBiCGStab:  Solving for ILambda_231_0, Initial residual = 1, Final residual = 1.97372917185e-61, No Iterations 63
DILUPBiCGStab:  Solving for ILambda_232_0, Initial residual = 1, Final residual = 8.44670141986e-61, No Iterations 65
DILUPBiCGStab:  Solving for ILambda_233_0, Initial residual = 1, Final residual = 1.1143246011e-62, No Iterations 68
DILUPBiCGStab:  Solving for ILambda_234_0, Initial residual = 1, Final residual = 6.91748779179e-61, No Iterations 67
DILUPBiCGStab:  Solving for ILambda_235_0, Initial residual = 1, Final residual = 6.56698130136e-61, No Iterations 66
DILUPBiCGStab:  Solving for ILambda_236_0, Initial residual = 1, Final residual = 6.52609991839e-61, No Iterations 61
DILUPBiCGStab:  Solving for ILambda_237_0, Initial residual = 1, Final residual = 1.66688306841e-61, No Iterations 56
DILUPBiCGStab:  Solving for ILambda_238_0, Initial residual = 1, Final residual = 4.15638299625e-61, No Iterations 46
DILUPBiCGStab:  Solving for ILambda_239_0, Initial residual = 1, Final residual = 1.79111675778e-61, No Iterations 34
DILUPBiCGStab:  Solving for ILambda_240_0, Initial residual = 1, Final residual = 9.92143292124e-61, No Iterations 24
DILUPBiCGStab:  Solving for ILambda_241_0, Initial residual = 1, Final residual = 2.41332806819e-61, No Iterations 27
DILUPBiCGStab:  Solving for ILambda_242_0, Initial residual = 1, Final residual = 4.03743733845e-61, No Iterations 28
DILUPBiCGStab:  Solving for ILambda_243_0, Initial residual = 1, Final residual = 1.46619700538e-62, No Iterations 28
DILUPBiCGStab:  Solving for ILambda_244_0, Initial residual = 1, Final residual = 3.9563426486e-61, No Iterations 29
DILUPBiCGStab:  Solving for ILambda_245_0, Initial residual = 1, Final residual = 2.90395204298e-61, No Iterations 26
DILUPBiCGStab:  Solving for ILambda_246_0, Initial residual = 1, Final residual = 1.44669517425e-61, No Iterations 27
DILUPBiCGStab:  Solving for ILambda_247_0, Initial residual = 1, Final residual = 1.6428648064e-62, No Iterations 29
DILUPBiCGStab:  Solving for ILambda_248_0, Initial residual = 1, Final residual = 9.09041557456e-61, No Iterations 27
DILUPBiCGStab:  Solving for ILambda_249_0, Initial residual = 1, Final residual = 8.76614267946e-61, No Iterations 26
DILUPBiCGStab:  Solving for ILambda_250_0, Initial residual = 1, Final residual = 7.21985460339e-61, No Iterations 25
DILUPBiCGStab:  Solving for ILambda_251_0, Initial residual = 1, Final residual = 3.35820387e-61, No Iterations 23
DILUPBiCGStab:  Solving for ILambda_252_0, Initial residual = 1, Final residual = 5.0232704374e-61, No Iterations 33
DILUPBiCGStab:  Solving for ILambda_253_0, Initial residual = 1, Final residual = 4.62710016769e-61, No Iterations 46
DILUPBiCGStab:  Solving for ILambda_254_0, Initial residual = 1, Final residual = 9.3870626843e-61, No Iterations 54
DILUPBiCGStab:  Solving for ILambda_255_0, Initial residual = 1, Final residual = 3.13734849236e-61, No Iterations 59
DILUPBiCGStab:  Solving for ILambda_256_0, Initial residual = 1, Final residual = 6.1085923058e-61, No Iterations 63
DILUPBiCGStab:  Solving for ILambda_257_0, Initial residual = 1, Final residual = 3.48594308027e-61, No Iterations 61
DILUPBiCGStab:  Solving for ILambda_258_0, Initial residual = 1, Final residual = 6.35707451314e-61, No Iterations 61
DILUPBiCGStab:  Solving for ILambda_259_0, Initial residual = 1, Final residual = 7.58609050206e-61, No Iterations 62
DILUPBiCGStab:  Solving for ILambda_260_0, Initial residual = 1, Final residual = 1.27213568075e-61, No Iterations 60
DILUPBiCGStab:  Solving for ILambda_261_0, Initial residual = 1, Final residual = 1.49985526184e-61, No Iterations 56
DILUPBiCGStab:  Solving for ILambda_262_0, Initial residual = 1, Final residual = 7.08473322261e-61, No Iterations 48
DILUPBiCGStab:  Solving for ILambda_263_0, Initial residual = 1, Final residual = 1.045069456e-61, No Iterations 33
DILUPBiCGStab:  Solving for ILambda_264_0, Initial residual = 1, Final residual = 2.6945016503e-75, No Iterations 3
DILUPBiCGStab:  Solving for ILambda_265_0, Initial residual = 1, Final residual = 2.28528109986e-75, No Iterations 3
DILUPBiCGStab:  Solving for ILambda_266_0, Initial residual = 1, Final residual = 2.87151839136e-75, No Iterations 3
DILUPBiCGStab:  Solving for ILambda_267_0, Initial residual = 1, Final residual = 3.75761121276e-74, No Iterations 3
DILUPBiCGStab:  Solving for ILambda_268_0, Initial residual = 1, Final residual = 3.63935170337e-75, No Iterations 3
DILUPBiCGStab:  Solving for ILambda_269_0, Initial residual = 1, Final residual = 3.12454510439e-75, No Iterations 3
DILUPBiCGStab:  Solving for ILambda_270_0, Initial residual = 1, Final residual = 7.56960540694e-75, No Iterations 3
DILUPBiCGStab:  Solving for ILambda_271_0, Initial residual = 1, Final residual = 6.74520175167e-75, No Iterations 3
DILUPBiCGStab:  Solving for ILambda_272_0, Initial residual = 1, Final residual = 6.91259159179e-75, No Iterations 3
DILUPBiCGStab:  Solving for ILambda_273_0, Initial residual = 1, Final residual = 2.82951673526e-75, No Iterations 3
DILUPBiCGStab:  Solving for ILambda_274_0, Initial residual = 1, Final residual = 2.09191908209e-75, No Iterations 3
DILUPBiCGStab:  Solving for ILambda_275_0, Initial residual = 1, Final residual = 2.8054920802e-74, No Iterations 3
DILUPBiCGStab:  Solving for ILambda_276_0, Initial residual = 1, Final residual = 9.0099908651e-62, No Iterations 33
DILUPBiCGStab:  Solving for ILambda_277_0, Initial residual = 1, Final residual = 9.42979441339e-61, No Iterations 48
DILUPBiCGStab:  Solving for ILambda_278_0, Initial residual = 1, Final residual = 6.51965735291e-61, No Iterations 56
DILUPBiCGStab:  Solving for ILambda_279_0, Initial residual = 1, Final residual = 1.16561899479e-61, No Iterations 61
DILUPBiCGStab:  Solving for ILambda_280_0, Initial residual = 1, Final residual = 7.50851441985e-61, No Iterations 64
DILUPBiCGStab:  Solving for ILambda_281_0, Initial residual = 1, Final residual = 7.03130334024e-61, No Iterations 60
DILUPBiCGStab:  Solving for ILambda_282_0, Initial residual = 1, Final residual = 4.32255176431e-61, No Iterations 61
DILUPBiCGStab:  Solving for ILambda_283_0, Initial residual = 1, Final residual = 7.89107267959e-61, No Iterations 63
DILUPBiCGStab:  Solving for ILambda_284_0, Initial residual = 1, Final residual = 6.51027536182e-61, No Iterations 58
DILUPBiCGStab:  Solving for ILambda_285_0, Initial residual = 1, Final residual = 8.65131366183e-61, No Iterations 55
[...]
DILUPBiCGStab:  Solving for ILambda_140_0, Initial residual = 7.79256898334e-16, Final residual = 1.96161340459e-61, No Iterations 43
DILUPBiCGStab:  Solving for ILambda_141_0, Initial residual = 6.87342553784e-16, Final residual = 2.021714221e-61, No Iterations 40
DILUPBiCGStab:  Solving for ILambda_142_0, Initial residual = 5.86180076557e-16, Final residual = 8.22903834798e-61, No Iterations 34
DILUPBiCGStab:  Solving for ILambda_143_0, Initial residual = 6.64461353981e-16, Final residual = 9.52464518289e-61, No Iterations 27
DILUPBiCGStab:  Solving for ILambda_144_0, Initial residual = 5.51901616321e-16, Final residual = 1.50630732039e-62, No Iterations 15
DILUPBiCGStab:  Solving for ILambda_145_0, Initial residual = 5.50953246778e-16, Final residual = 9.16821797812e-61, No Iterations 14
DILUPBiCGStab:  Solving for ILambda_146_0, Initial residual = 5.74464653438e-16, Final residual = 6.55930939796e-61, No Iterations 16
DILUPBiCGStab:  Solving for ILambda_147_0, Initial residual = 5.31797711628e-16, Final residual = 3.16791454108e-61, No Iterations 15
DILUPBiCGStab:  Solving for ILambda_148_0, Initial residual = 5.80515353101e-16, Final residual = 6.99909275474e-62, No Iterations 16
DILUPBiCGStab:  Solving for ILambda_149_0, Initial residual = 5.77667185214e-16, Final residual = 4.64760613174e-62, No Iterations 16
DILUPBiCGStab:  Solving for ILambda_150_0, Initial residual = 6.04549892639e-16, Final residual = 4.28593371345e-61, No Iterations 16
DILUPBiCGStab:  Solving for ILambda_151_0, Initial residual = 5.79204461651e-16, Final residual = 1.84947806359e-61, No Iterations 17
DILUPBiCGStab:  Solving for ILambda_152_0, Initial residual = 5.64980958004e-16, Final residual = 1.42995778673e-61, No Iterations 17
DILUPBiCGStab:  Solving for ILambda_153_0, Initial residual = 6.0597958522e-16, Final residual = 5.57665773298e-62, No Iterations 17
DILUPBiCGStab:  Solving for ILambda_154_0, Initial residual = 5.62650314357e-16, Final residual = 2.00561304985e-62, No Iterations 17
DILUPBiCGStab:  Solving for ILambda_155_0, Initial residual = 5.22322174211e-16, Final residual = 3.91767096065e-62, No Iterations 14
DILUPBiCGStab:  Solving for ILambda_156_0, Initial residual = 5.67901528297e-16, Final residual = 3.85360920063e-61, No Iterations 26
DILUPBiCGStab:  Solving for ILambda_157_0, Initial residual = 7.35769565881e-16, Final residual = 4.8322658546e-62, No Iterations 35
DILUPBiCGStab:  Solving for ILambda_158_0, Initial residual = 6.41245675458e-16, Final residual = 1.43581240465e-61, No Iterations 40
DILUPBiCGStab:  Solving for ILambda_159_0, Initial residual = 7.10507754574e-16, Final residual = 6.69001577804e-61, No Iterations 44
DILUPBiCGStab:  Solving for ILambda_160_0, Initial residual = 9.77088314732e-16, Final residual = 2.97347392465e-61, No Iterations 47
DILUPBiCGStab:  Solving for ILambda_161_0, Initial residual = 8.56648951843e-16, Final residual = 1.71691220073e-61, No Iterations 52
DILUPBiCGStab:  Solving for ILambda_162_0, Initial residual = 7.52274255194e-16, Final residual = 2.78241272584e-61, No Iterations 44
DILUPBiCGStab:  Solving for ILambda_163_0, Initial residual = 5.58438227906e-16, Final residual = 3.45895288241e-61, No Iterations 45
DILUPBiCGStab:  Solving for ILambda_164_0, Initial residual = 8.36646002617e-16, Final residual = 2.32003526699e-61, No Iterations 43
DILUPBiCGStab:  Solving for ILambda_165_0, Initial residual = 8.9183295203e-16, Final residual = 1.44547953162e-61, No Iterations 39
DILUPBiCGStab:  Solving for ILambda_166_0, Initial residual = 6.6744922792e-16, Final residual = 1.52218888332e-61, No Iterations 35
DILUPBiCGStab:  Solving for ILambda_167_0, Initial residual = 5.30330288216e-16, Final residual = 4.22245945162e-61, No Iterations 27
DILUPBiCGStab:  Solving for ILambda_168_0, Initial residual = 5.42378150551e-16, Final residual = 5.64797270648e-62, No Iterations 2
DILUPBiCGStab:  Solving for ILambda_169_0, Initial residual = 5.80560222198e-16, Final residual = 6.29244703266e-61, No Iterations 2
DILUPBiCGStab:  Solving for ILambda_170_0, Initial residual = 5.86312644343e-16, Final residual = 6.71897704638e-62, No Iterations 2
DILUPBiCGStab:  Solving for ILambda_171_0, Initial residual = 6.07459245658e-16, Final residual = 6.69535615584e-61, No Iterations 2
DILUPBiCGStab:  Solving for ILambda_172_0, Initial residual = 5.68085593568e-16, Final residual = 1.78800559584e-61, No Iterations 2
DILUPBiCGStab:  Solving for ILambda_173_0, Initial residual = 5.17874015126e-16, Final residual = 7.57118743301e-62, No Iterations 2
DILUPBiCGStab:  Solving for ILambda_174_0, Initial residual = 6.0840914483e-16, Final residual = 3.64930569888e-61, No Iterations 2
DILUPBiCGStab:  Solving for ILambda_175_0, Initial residual = 5.64916203739e-16, Final residual = 3.75254230941e-61, No Iterations 2
DILUPBiCGStab:  Solving for ILambda_176_0, Initial residual = 5.73638144283e-16, Final residual = 6.01569531291e-62, No Iterations 2
DILUPBiCGStab:  Solving for ILambda_177_0, Initial residual = 5.28461592315e-16, Final residual = 1.56222128538e-62, No Iterations 2
DILUPBiCGStab:  Solving for ILambda_178_0, Initial residual = 5.21645058752e-16, Final residual = 9.95013987604e-62, No Iterations 2
DILUPBiCGStab:  Solving for ILambda_179_0, Initial residual = 5.1927974353e-16, Final residual = 6.77080941007e-62, No Iterations 2
DILUPBiCGStab:  Solving for ILambda_180_0, Initial residual = 6.67984597823e-16, Final residual = 7.43668929004e-61, No Iterations 25
DILUPBiCGStab:  Solving for ILambda_181_0, Initial residual = 6.3880540845e-16, Final residual = 1.16781073504e-61, No Iterations 35
DILUPBiCGStab:  Solving for ILambda_182_0, Initial residual = 7.27885351768e-16, Final residual = 3.83050215905e-61, No Iterations 41
DILUPBiCGStab:  Solving for ILambda_183_0, Initial residual = 7.74341182868e-16, Final residual = 3.66743801213e-61, No Iterations 43
DILUPBiCGStab:  Solving for ILambda_184_0, Initial residual = 6.83093756254e-16, Final residual = 2.86817273011e-61, No Iterations 45
DILUPBiCGStab:  Solving for ILambda_185_0, Initial residual = 5.76471525763e-16, Final residual = 5.9935596971e-61, No Iterations 44
DILUPBiCGStab:  Solving for ILambda_186_0, Initial residual = 8.99433675032e-16, Final residual = 5.7510525327e-61, No Iterations 48
DILUPBiCGStab:  Solving for ILambda_187_0, Initial residual = 7.48793331069e-16, Final residual = 4.58779234256e-61, No Iterations 48
DILUPBiCGStab:  Solving for ILambda_188_0, Initial residual = 7.28571644997e-16, Final residual = 7.58449542004e-62, No Iterations 44
DILUPBiCGStab:  Solving for ILambda_189_0, Initial residual = 6.33120799826e-16, Final residual = 4.79585866069e-61, No Iterations 39
DILUPBiCGStab:  Solving for ILambda_190_0, Initial residual = 6.97221913072e-16, Final residual = 3.6872169687e-62, No Iterations 34
DILUPBiCGStab:  Solving for ILambda_191_0, Initial residual = 5.4096681351e-16, Final residual = 3.43262504205e-63, No Iterations 27
DILUPBiCGStab:  Solving for ILambda_192_0, Initial residual = 1.56269121155e-16, Final residual = 1.74037836525e-61, No Iterations 14
DILUPBiCGStab:  Solving for ILambda_193_0, Initial residual = 1.61551947413e-16, Final residual = 6.70293435559e-61, No Iterations 13
DILUPBiCGStab:  Solving for ILambda_194_0, Initial residual = 1.59064261927e-16, Final residual = 2.92773620839e-62, No Iterations 15
DILUPBiCGStab:  Solving for ILambda_195_0, Initial residual = 1.6882660465e-16, Final residual = 1.06964620293e-61, No Iterations 14
DILUPBiCGStab:  Solving for ILambda_196_0, Initial residual = 1.18527582457e-16, Final residual = 2.52081108656e-61, No Iterations 15
DILUPBiCGStab:  Solving for ILambda_197_0, Initial residual = 8.40005576231e-17, Final residual = 2.45452481063e-61, No Iterations 13
DILUPBiCGStab:  Solving for ILambda_198_0, Initial residual = 8.77170445061e-17, Final residual = 6.1027699275e-63, No Iterations 12
DILUPBiCGStab:  Solving for ILambda_199_0, Initial residual = 9.75013119011e-17, Final residual = 4.67915757275e-61, No Iterations 15
DILUPBiCGStab:  Solving for ILambda_200_0, Initial residual = 2.07193761321e-16, Final residual = 6.20188070012e-61, No Iterations 15
DILUPBiCGStab:  Solving for ILambda_201_0, Initial residual = 2.04250501541e-16, Final residual = 7.43841660464e-61, No Iterations 12
DILUPBiCGStab:  Solving for ILambda_202_0, Initial residual = 2.07331427867e-16, Final residual = 1.3734483055e-62, No Iterations 13
DILUPBiCGStab:  Solving for ILambda_203_0, Initial residual = 1.87085267742e-16, Final residual = 1.76199362587e-61, No Iterations 14
DILUPBiCGStab:  Solving for ILambda_204_0, Initial residual = 1.60025633311e-16, Final residual = 6.12447145204e-61, No Iterations 25
DILUPBiCGStab:  Solving for ILambda_205_0, Initial residual = 1.96095798158e-16, Final residual = 6.16359117016e-61, No Iterations 34
DILUPBiCGStab:  Solving for ILambda_206_0, Initial residual = 1.79530433589e-16, Final residual = 6.51368720443e-61, No Iterations 38
DILUPBiCGStab:  Solving for ILambda_207_0, Initial residual = 2.17712505236e-16, Final residual = 2.20262314791e-61, No Iterations 43
DILUPBiCGStab:  Solving for ILambda_208_0, Initial residual = 1.48863170822e-16, Final residual = 2.15815858284e-61, No Iterations 48
DILUPBiCGStab:  Solving for ILambda_209_0, Initial residual = 1.2890024687e-16, Final residual = 6.96386559811e-61, No Iterations 46
DILUPBiCGStab:  Solving for ILambda_210_0, Initial residual = 1.02010911056e-16, Final residual = 1.64342342231e-61, No Iterations 48
DILUPBiCGStab:  Solving for ILambda_211_0, Initial residual = 1.39191840983e-16, Final residual = 1.85870105675e-61, No Iterations 46
DILUPBiCGStab:  Solving for ILambda_212_0, Initial residual = 2.46131214408e-16, Final residual = 8.36899819811e-61, No Iterations 43
DILUPBiCGStab:  Solving for ILambda_213_0, Initial residual = 2.15865734006e-16, Final residual = 2.86828326973e-61, No Iterations 38
DILUPBiCGStab:  Solving for ILambda_214_0, Initial residual = 2.1538033196e-16, Final residual = 7.27653249755e-61, No Iterations 34
DILUPBiCGStab:  Solving for ILambda_215_0, Initial residual = 1.93693261981e-16, Final residual = 2.37050483923e-63, No Iterations 25
DILUPBiCGStab:  Solving for ILambda_216_0, Initial residual = 1.85492159872e-16, Final residual = 8.40300451782e-61, No Iterations 2
DILUPBiCGStab:  Solving for ILambda_217_0, Initial residual = 2.03200411716e-16, Final residual = 1.64055952914e-62, No Iterations 2
DILUPBiCGStab:  Solving for ILambda_218_0, Initial residual = 2.03775297017e-16, Final residual = 1.74243230391e-62, No Iterations 2
DILUPBiCGStab:  Solving for ILambda_219_0, Initial residual = 2.04049610358e-16, Final residual = 3.83994523671e-74, No Iterations 2
DILUPBiCGStab:  Solving for ILambda_220_0, Initial residual = 1.09716668534e-16, Final residual = 1.19885580514e-62, No Iterations 2
DILUPBiCGStab:  Solving for ILambda_221_0, Initial residual = 9.2244234386e-17, Final residual = 4.47674703832e-63, No Iterations 2
DILUPBiCGStab:  Solving for ILambda_222_0, Initial residual = 9.22809454651e-17, Final residual = 5.20622421799e-62, No Iterations 2
DILUPBiCGStab:  Solving for ILambda_223_0, Initial residual = 1.12606646261e-16, Final residual = 1.90532646852e-62, No Iterations 2
DILUPBiCGStab:  Solving for ILambda_224_0, Initial residual = 1.61644744863e-16, Final residual = 1.66942110855e-61, No Iterations 2
DILUPBiCGStab:  Solving for ILambda_225_0, Initial residual = 1.54060337895e-16, Final residual = 1.17655338478e-62, No Iterations 2
DILUPBiCGStab:  Solving for ILambda_226_0, Initial residual = 1.53965755879e-16, Final residual = 4.28328390648e-62, No Iterations 2
DILUPBiCGStab:  Solving for ILambda_227_0, Initial residual = 1.56395060551e-16, Final residual = 4.50074125079e-62, No Iterations 2
DILUPBiCGStab:  Solving for ILambda_228_0, Initial residual = 1.81390716535e-16, Final residual = 4.86207998874e-61, No Iterations 25
DILUPBiCGStab:  Solving for ILambda_229_0, Initial residual = 2.02592384468e-16, Final residual = 2.52947379888e-61, No Iterations 34
DILUPBiCGStab:  Solving for ILambda_230_0, Initial residual = 2.3129866376e-16, Final residual = 7.13129256736e-61, No Iterations 39
DILUPBiCGStab:  Solving for ILambda_231_0, Initial residual = 2.2111643807e-16, Final residual = 3.95446278135e-61, No Iterations 43
DILUPBiCGStab:  Solving for ILambda_232_0, Initial residual = 1.96987571454e-16, Final residual = 3.40074380757e-61, No Iterations 42
DILUPBiCGStab:  Solving for ILambda_233_0, Initial residual = 1.08862116193e-16, Final residual = 2.89303246695e-61, No Iterations 41
DILUPBiCGStab:  Solving for ILambda_234_0, Initial residual = 1.90846113846e-16, Final residual = 8.68906076293e-61, No Iterations 48
DILUPBiCGStab:  Solving for ILambda_235_0, Initial residual = 1.26457940357e-16, Final residual = 1.14502309702e-61, No Iterations 46
DILUPBiCGStab:  Solving for ILambda_236_0, Initial residual = 2.27201299431e-16, Final residual = 7.10535022813e-61, No Iterations 42
DILUPBiCGStab:  Solving for ILambda_237_0, Initial residual = 1.65737520306e-16, Final residual = 7.15858299167e-61, No Iterations 39
DILUPBiCGStab:  Solving for ILambda_238_0, Initial residual = 2.01676901933e-16, Final residual = 3.34098054217e-61, No Iterations 33
DILUPBiCGStab:  Solving for ILambda_239_0, Initial residual = 1.57865033343e-16, Final residual = 5.33158503699e-61, No Iterations 25
DILUPBiCGStab:  Solving for ILambda_240_0, Initial residual = 3.59744356088e-17, Final residual = 2.85482250328e-61, No Iterations 12
DILUPBiCGStab:  Solving for ILambda_241_0, Initial residual = 4.42944663174e-17, Final residual = 4.36621326362e-61, No Iterations 13
DILUPBiCGStab:  Solving for ILambda_242_0, Initial residual = 6.29482833862e-17, Final residual = 2.27987781747e-61, No Iterations 13
DILUPBiCGStab:  Solving for ILambda_243_0, Initial residual = 6.1949436109e-17, Final residual = 4.4793116336e-62, No Iterations 11
DILUPBiCGStab:  Solving for ILambda_244_0, Initial residual = 6.35435637314e-17, Final residual = 7.45116230531e-61, No Iterations 12
DILUPBiCGStab:  Solving for ILambda_245_0, Initial residual = 6.72031994294e-17, Final residual = 6.00528239281e-61, No Iterations 12
DILUPBiCGStab:  Solving for ILambda_246_0, Initial residual = 6.87718332469e-17, Final residual = 1.22093472757e-61, No Iterations 12
DILUPBiCGStab:  Solving for ILambda_247_0, Initial residual = 6.88857905549e-17, Final residual = 1.50434681819e-63, No Iterations 12
DILUPBiCGStab:  Solving for ILambda_248_0, Initial residual = 6.98150397447e-17, Final residual = 2.18621442365e-61, No Iterations 13
DILUPBiCGStab:  Solving for ILambda_249_0, Initial residual = 7.06558254314e-17, Final residual = 8.25015592742e-63, No Iterations 12
DILUPBiCGStab:  Solving for ILambda_250_0, Initial residual = 5.43612050709e-17, Final residual = 5.20375878953e-61, No Iterations 11
DILUPBiCGStab:  Solving for ILambda_251_0, Initial residual = 4.39763036318e-17, Final residual = 5.70740839797e-61, No Iterations 11
DILUPBiCGStab:  Solving for ILambda_252_0, Initial residual = 3.73075066687e-17, Final residual = 2.43018841766e-61, No Iterations 24
DILUPBiCGStab:  Solving for ILambda_253_0, Initial residual = 4.17885527616e-17, Final residual = 2.25176626143e-62, No Iterations 34
DILUPBiCGStab:  Solving for ILambda_254_0, Initial residual = 7.55347023503e-17, Final residual = 3.42471511163e-61, No Iterations 37
DILUPBiCGStab:  Solving for ILambda_255_0, Initial residual = 7.29686234148e-17, Final residual = 7.95389668277e-61, No Iterations 42
DILUPBiCGStab:  Solving for ILambda_256_0, Initial residual = 7.9595992945e-17, Final residual = 3.70003889673e-61, No Iterations 45
DILUPBiCGStab:  Solving for ILambda_257_0, Initial residual = 8.61175631847e-17, Final residual = 2.22862849118e-61, No Iterations 45
DILUPBiCGStab:  Solving for ILambda_258_0, Initial residual = 8.42464453717e-17, Final residual = 7.67639019329e-61, No Iterations 44
DILUPBiCGStab:  Solving for ILambda_259_0, Initial residual = 8.59628157887e-17, Final residual = 5.45294824659e-61, No Iterations 43
DILUPBiCGStab:  Solving for ILambda_260_0, Initial residual = 7.33472064181e-17, Final residual = 3.90619936581e-61, No Iterations 42
DILUPBiCGStab:  Solving for ILambda_261_0, Initial residual = 8.31386120783e-17, Final residual = 2.58065208224e-61, No Iterations 37
DILUPBiCGStab:  Solving for ILambda_262_0, Initial residual = 5.31164700451e-17, Final residual = 5.56601376508e-61, No Iterations 33
DILUPBiCGStab:  Solving for ILambda_263_0, Initial residual = 4.63040154912e-17, Final residual = 5.0717844983e-63, No Iterations 25
DILUPBiCGStab:  Solving for ILambda_264_0, Initial residual = 4.48285615307e-17, Final residual = 5.68862507887e-63, No Iterations 2
DILUPBiCGStab:  Solving for ILambda_265_0, Initial residual = 5.12767096122e-17, Final residual = 5.61444054957e-63, No Iterations 2
DILUPBiCGStab:  Solving for ILambda_266_0, Initial residual = 6.78952287643e-17, Final residual = 9.46891000795e-63, No Iterations 2
DILUPBiCGStab:  Solving for ILambda_267_0, Initial residual = 6.84638680833e-17, Final residual = 4.23130531286e-63, No Iterations 2
DILUPBiCGStab:  Solving for ILambda_268_0, Initial residual = 6.95171446341e-17, Final residual = 2.61365069453e-62, No Iterations 2
DILUPBiCGStab:  Solving for ILambda_269_0, Initial residual = 6.86008972848e-17, Final residual = 5.52613400556e-62, No Iterations 2
DILUPBiCGStab:  Solving for ILambda_270_0, Initial residual = 6.75392077784e-17, Final residual = 5.41972659326e-63, No Iterations 2
DILUPBiCGStab:  Solving for ILambda_271_0, Initial residual = 6.35331112714e-17, Final residual = 1.5766894857e-63, No Iterations 2
DILUPBiCGStab:  Solving for ILambda_272_0, Initial residual = 6.2032290975e-17, Final residual = 2.69674205078e-63, No Iterations 2
DILUPBiCGStab:  Solving for ILambda_273_0, Initial residual = 6.44738326734e-17, Final residual = 4.79056380812e-63, No Iterations 2
DILUPBiCGStab:  Solving for ILambda_274_0, Initial residual = 4.45491494287e-17, Final residual = 1.88440005089e-63, No Iterations 2
DILUPBiCGStab:  Solving for ILambda_275_0, Initial residual = 3.71256083705e-17, Final residual = 2.10357016432e-63, No Iterations 2
DILUPBiCGStab:  Solving for ILambda_276_0, Initial residual = 3.98924510198e-17, Final residual = 7.08669207003e-62, No Iterations 25
DILUPBiCGStab:  Solving for ILambda_277_0, Initial residual = 5.88453104205e-17, Final residual = 1.66849105384e-62, No Iterations 32
DILUPBiCGStab:  Solving for ILambda_278_0, Initial residual = 7.40527474696e-17, Final residual = 9.29735605296e-61, No Iterations 38
DILUPBiCGStab:  Solving for ILambda_279_0, Initial residual = 7.79118721912e-17, Final residual = 1.57165178622e-61, No Iterations 39
DILUPBiCGStab:  Solving for ILambda_280_0, Initial residual = 8.54983186629e-17, Final residual = 3.3659944411e-61, No Iterations 43
DILUPBiCGStab:  Solving for ILambda_281_0, Initial residual = 8.19302057246e-17, Final residual = 2.11790389688e-61, No Iterations 44
DILUPBiCGStab:  Solving for ILambda_282_0, Initial residual = 7.69833878155e-17, Final residual = 2.57172817046e-61, No Iterations 49
DILUPBiCGStab:  Solving for ILambda_283_0, Initial residual = 7.12110805028e-17, Final residual = 5.03943087718e-61, No Iterations 43
DILUPBiCGStab:  Solving for ILambda_284_0, Initial residual = 7.49352155273e-17, Final residual = 7.69815870113e-61, No Iterations 40
DILUPBiCGStab:  Solving for ILambda_285_0, Initial residual = 7.67865756414e-17, Final residual = 3.41351982322e-61, No Iterations 38
DILUPBiCGStab:  Solving for ILambda_286_0, Initial residual = 4.52447478962e-17, Final residual = 5.76178049067e-62, No Iterations 32
DILUPBiCGStab:  Solving for ILambda_287_0, Initial residual = 4.2902122161e-17, Final residual = 4.9178303755e-61, No Iterations 24
min/max(T) = 1000, 1000
ExecutionTime = 35.14 s  ClockTime = 36 s

writeObjects writeObjects1.writeObjects write:
    writing object a
    writing object qem
End

