/*---------------------------------------------------------------------------*\
| =========                 |                                                 |
| \\      /  F ield         | OpenFOAM: The Open Source CFD Toolbox           |
|  \\    /   O peration     | Version:  2306                                  |
|   \\  /    A nd           | Website:  www.openfoam.com                      |
|    \\/     M anipulation  |                                                 |
\*---------------------------------------------------------------------------*/
Build  : _fbf00d6b-20230626 OPENFOAM=2306 version=2306
Arch   : "LSB;label=32;scalar=64"
Exec   : fireRADFoam_MaCFP
Date   : Mar 12 2024
Time   : 19:27:55
Host   : pop-os
PID    : 172654
I/O    : uncollated
Case   : /home/rafay/Desktop/Study/Radiative_Heat_Transfer/Local_copy_RHT2324/01_Projects/02_Rafay/Case_1_q1D_SolidAngle/new_case3/th_4-ph_8/tau_10/res_1
nProcs : 1
trapFpe: Floating point exception trapping enabled (FOAM_SIGFPE).
fileModificationChecking : Monitoring run-time modified files using timeStampMaster (fileModificationSkew 5, maxFileModificationPolls 20)
allowSystemOperations : Allowing user-supplied system call operations

// * * * * * * * * * * * * * * * * * * * * * * * * * * * * * * * * * * * * * //
Create time

Create mesh for time = 0


PIMPLE: no residual control data found. Calculations will employ 10 corrector loops

Reading thermophysical properties

Selecting thermodynamics package 
{
    type            hePsiThermo;
    mixture         singleStepReactingMixture;
    transport       sutherland;
    thermo          janaf;
    energy          sensibleEnthalpy;
    equationOfState perfectGas;
    specie          specie;
}

Selecting chemistryReader foamChemistryReader
    elements not defined in "/home/rafay/Desktop/Study/Radiative_Heat_Transfer/Local_copy_RHT2324/01_Projects/02_Rafay/Case_1_q1D_SolidAngle/new_case3/th_4-ph_8/tau_10/res_1/constant/reactions"
Fuel heat of combustion :47168962.4726
stoichiometric air-fuel ratio :14.6914056505
stoichiometric oxygen-fuel ratio :3.42181919285
Maximum products mass concentrations:
    H2O: 0.0818486943001
    CO2: 0.199950099979
    N2: 0.718201205721
Creating component thermo properties:
    multi-component carrier - 6 species
    no liquid components
    no solid components
Creating field rho


Reading field U

Reading/calculating face flux field phi

Selecting radiationModel fvDOM
Selecting absorptionEmissionModel constantAbsorptionEmission
Selecting scatterModel none
Selecting sootModel none
fvDOM : Allocated 128 rays with average orientation:
	I0 : dAve : 	(0.00274192284156 0.0278392098 0.0490873852123) : omega : 	0.0575094490319 : d : 	(0.0375095356919 0.38084070704 0.923879532511)
	I1 : dAve : 	(0.00812039796756 0.0267693645798 0.0490873852123) : omega : 	0.0575094490319 : d : 	(0.111087136655 0.366205212247 0.923879532511)
	I2 : dAve : 	(0.0131868107536 0.0246707876912 0.0490873852123) : omega : 	0.0575094490319 : d : 	(0.180395721254 0.337496656517 0.923879532511)
	I3 : dAve : 	(0.0177464617977 0.0216241262672 0.0490873852123) : omega : 	0.0575094490319 : d : 	(0.242771799453 0.295818293547 0.923879532511)
	I4 : dAve : 	(0.0216241262672 0.0177464617977 0.0490873852123) : omega : 	0.0575094490319 : d : 	(0.295818293547 0.242771799453 0.923879532511)
	I5 : dAve : 	(0.0246707876912 0.0131868107536 0.0490873852123) : omega : 	0.0575094490319 : d : 	(0.337496656517 0.180395721254 0.923879532511)
	I6 : dAve : 	(0.0267693645798 0.00812039796756 0.0490873852123) : omega : 	0.0575094490319 : d : 	(0.366205212247 0.111087136655 0.923879532511)
	I7 : dAve : 	(0.0278392098 0.00274192284156 0.0490873852123) : omega : 	0.0575094490319 : d : 	(0.38084070704 0.0375095356919 0.923879532511)
	I8 : dAve : 	(0.0278392098 -0.00274192284156 0.0490873852123) : omega : 	0.0575094490319 : d : 	(0.38084070704 -0.0375095356919 0.923879532511)
	I9 : dAve : 	(0.0267693645798 -0.00812039796756 0.0490873852123) : omega : 	0.0575094490319 : d : 	(0.366205212247 -0.111087136655 0.923879532511)
	I10 : dAve : 	(0.0246707876912 -0.0131868107536 0.0490873852123) : omega : 	0.0575094490319 : d : 	(0.337496656517 -0.180395721254 0.923879532511)
	I11 : dAve : 	(0.0216241262672 -0.0177464617977 0.0490873852123) : omega : 	0.0575094490319 : d : 	(0.295818293547 -0.242771799453 0.923879532511)
	I12 : dAve : 	(0.0177464617977 -0.0216241262672 0.0490873852123) : omega : 	0.0575094490319 : d : 	(0.242771799453 -0.295818293547 0.923879532511)
	I13 : dAve : 	(0.0131868107536 -0.0246707876912 0.0490873852123) : omega : 	0.0575094490319 : d : 	(0.180395721254 -0.337496656517 0.923879532511)
	I14 : dAve : 	(0.00812039796756 -0.0267693645798 0.0490873852123) : omega : 	0.0575094490319 : d : 	(0.111087136655 -0.366205212247 0.923879532511)
	I15 : dAve : 	(0.00274192284156 -0.0278392098 0.0490873852123) : omega : 	0.0575094490319 : d : 	(0.0375095356919 -0.38084070704 0.923879532511)
	I16 : dAve : 	(-0.00274192284156 -0.0278392098 0.0490873852123) : omega : 	0.0575094490319 : d : 	(-0.0375095356919 -0.38084070704 0.923879532511)
	I17 : dAve : 	(-0.00812039796756 -0.0267693645798 0.0490873852123) : omega : 	0.0575094490319 : d : 	(-0.111087136655 -0.366205212247 0.923879532511)
	I18 : dAve : 	(-0.0131868107536 -0.0246707876912 0.0490873852123) : omega : 	0.0575094490319 : d : 	(-0.180395721254 -0.337496656517 0.923879532511)
	I19 : dAve : 	(-0.0177464617977 -0.0216241262672 0.0490873852123) : omega : 	0.0575094490319 : d : 	(-0.242771799453 -0.295818293547 0.923879532511)
	I20 : dAve : 	(-0.0216241262672 -0.0177464617977 0.0490873852123) : omega : 	0.0575094490319 : d : 	(-0.295818293547 -0.242771799453 0.923879532511)
	I21 : dAve : 	(-0.0246707876912 -0.0131868107536 0.0490873852123) : omega : 	0.0575094490319 : d : 	(-0.337496656517 -0.180395721254 0.923879532511)
	I22 : dAve : 	(-0.0267693645798 -0.00812039796756 0.0490873852123) : omega : 	0.0575094490319 : d : 	(-0.366205212247 -0.111087136655 0.923879532511)
	I23 : dAve : 	(-0.0278392098 -0.00274192284156 0.0490873852123) : omega : 	0.0575094490319 : d : 	(-0.38084070704 -0.0375095356919 0.923879532511)
	I24 : dAve : 	(-0.0278392098 0.00274192284156 0.0490873852123) : omega : 	0.0575094490319 : d : 	(-0.38084070704 0.0375095356919 0.923879532511)
	I25 : dAve : 	(-0.0267693645798 0.00812039796756 0.0490873852123) : omega : 	0.0575094490319 : d : 	(-0.366205212247 0.111087136655 0.923879532511)
	I26 : dAve : 	(-0.0246707876912 0.0131868107536 0.0490873852123) : omega : 	0.0575094490319 : d : 	(-0.337496656517 0.180395721254 0.923879532511)
	I27 : dAve : 	(-0.0216241262672 0.0177464617977 0.0490873852123) : omega : 	0.0575094490319 : d : 	(-0.295818293547 0.242771799453 0.923879532511)
	I28 : dAve : 	(-0.0177464617977 0.0216241262672 0.0490873852123) : omega : 	0.0575094490319 : d : 	(-0.242771799453 0.295818293547 0.923879532511)
	I29 : dAve : 	(-0.0131868107536 0.0246707876912 0.0490873852123) : omega : 	0.0575094490319 : d : 	(-0.180395721254 0.337496656517 0.923879532511)
	I30 : dAve : 	(-0.00812039796756 0.0267693645798 0.0490873852123) : omega : 	0.0575094490319 : d : 	(-0.111087136655 0.366205212247 0.923879532511)
	I31 : dAve : 	(-0.00274192284156 0.0278392098 0.0490873852123) : omega : 	0.0575094490319 : d : 	(-0.0375095356919 0.38084070704 0.923879532511)
	I32 : dAve : 	(0.0123492826399 0.125384370808 0.0490873852123) : omega : 	0.138840091817 : d : 	(0.0905560297858 0.91943080004 0.382683432365)
	I33 : dAve : 	(0.0365732719135 0.120565919754 0.0490873852123) : omega : 	0.138840091817 : d : 	(0.268188071917 0.884097590017 0.382683432365)
	I34 : dAve : 	(0.059391770858 0.111114188018 0.0490873852123) : omega : 	0.138840091817 : d : 	(0.435513796846 0.814789005418 0.382683432365)
	I35 : dAve : 	(0.0799278773557 0.0973924003507 0.0490873852123) : omega : 	0.138840091817 : d : 	(0.586102970801 0.714168536279 0.382683432365)
	I36 : dAve : 	(0.0973924003507 0.0799278773557 0.0490873852123) : omega : 	0.138840091817 : d : 	(0.714168536279 0.586102970801 0.382683432365)
	I37 : dAve : 	(0.111114188018 0.059391770858 0.0490873852123) : omega : 	0.138840091817 : d : 	(0.814789005418 0.435513796846 0.382683432365)
	I38 : dAve : 	(0.120565919754 0.0365732719135 0.0490873852123) : omega : 	0.138840091817 : d : 	(0.884097590017 0.268188071917 0.382683432365)
	I39 : dAve : 	(0.125384370808 0.0123492826399 0.0490873852123) : omega : 	0.138840091817 : d : 	(0.91943080004 0.0905560297858 0.382683432365)
	I40 : dAve : 	(0.125384370808 -0.0123492826399 0.0490873852123) : omega : 	0.138840091817 : d : 	(0.91943080004 -0.0905560297858 0.382683432365)
	I41 : dAve : 	(0.120565919754 -0.0365732719135 0.0490873852123) : omega : 	0.138840091817 : d : 	(0.884097590017 -0.268188071917 0.382683432365)
	I42 : dAve : 	(0.111114188018 -0.059391770858 0.0490873852123) : omega : 	0.138840091817 : d : 	(0.814789005418 -0.435513796846 0.382683432365)
	I43 : dAve : 	(0.0973924003507 -0.0799278773557 0.0490873852123) : omega : 	0.138840091817 : d : 	(0.714168536279 -0.586102970801 0.382683432365)
	I44 : dAve : 	(0.0799278773557 -0.0973924003507 0.0490873852123) : omega : 	0.138840091817 : d : 	(0.586102970801 -0.714168536279 0.382683432365)
	I45 : dAve : 	(0.059391770858 -0.111114188018 0.0490873852123) : omega : 	0.138840091817 : d : 	(0.435513796846 -0.814789005418 0.382683432365)
	I46 : dAve : 	(0.0365732719135 -0.120565919754 0.0490873852123) : omega : 	0.138840091817 : d : 	(0.268188071917 -0.884097590017 0.382683432365)
	I47 : dAve : 	(0.0123492826399 -0.125384370808 0.0490873852123) : omega : 	0.138840091817 : d : 	(0.0905560297858 -0.91943080004 0.382683432365)
	I48 : dAve : 	(-0.0123492826399 -0.125384370808 0.0490873852123) : omega : 	0.138840091817 : d : 	(-0.0905560297858 -0.91943080004 0.382683432365)
	I49 : dAve : 	(-0.0365732719135 -0.120565919754 0.0490873852123) : omega : 	0.138840091817 : d : 	(-0.268188071917 -0.884097590017 0.382683432365)
	I50 : dAve : 	(-0.059391770858 -0.111114188018 0.0490873852123) : omega : 	0.138840091817 : d : 	(-0.435513796846 -0.814789005418 0.382683432365)
	I51 : dAve : 	(-0.0799278773557 -0.0973924003507 0.0490873852123) : omega : 	0.138840091817 : d : 	(-0.586102970801 -0.714168536279 0.382683432365)
	I52 : dAve : 	(-0.0973924003507 -0.0799278773557 0.0490873852123) : omega : 	0.138840091817 : d : 	(-0.714168536279 -0.586102970801 0.382683432365)
	I53 : dAve : 	(-0.111114188018 -0.059391770858 0.0490873852123) : omega : 	0.138840091817 : d : 	(-0.814789005418 -0.435513796846 0.382683432365)
	I54 : dAve : 	(-0.120565919754 -0.0365732719135 0.0490873852123) : omega : 	0.138840091817 : d : 	(-0.884097590017 -0.268188071917 0.382683432365)
	I55 : dAve : 	(-0.125384370808 -0.0123492826399 0.0490873852123) : omega : 	0.138840091817 : d : 	(-0.91943080004 -0.0905560297858 0.382683432365)
	I56 : dAve : 	(-0.125384370808 0.0123492826399 0.0490873852123) : omega : 	0.138840091817 : d : 	(-0.91943080004 0.0905560297858 0.382683432365)
	I57 : dAve : 	(-0.120565919754 0.0365732719135 0.0490873852123) : omega : 	0.138840091817 : d : 	(-0.884097590017 0.268188071917 0.382683432365)
	I58 : dAve : 	(-0.111114188018 0.059391770858 0.0490873852123) : omega : 	0.138840091817 : d : 	(-0.814789005418 0.435513796846 0.382683432365)
	I59 : dAve : 	(-0.0973924003507 0.0799278773557 0.0490873852123) : omega : 	0.138840091817 : d : 	(-0.714168536279 0.586102970801 0.382683432365)
	I60 : dAve : 	(-0.0799278773557 0.0973924003507 0.0490873852123) : omega : 	0.138840091817 : d : 	(-0.586102970801 0.714168536279 0.382683432365)
	I61 : dAve : 	(-0.059391770858 0.111114188018 0.0490873852123) : omega : 	0.138840091817 : d : 	(-0.435513796846 0.814789005418 0.382683432365)
	I62 : dAve : 	(-0.0365732719135 0.120565919754 0.0490873852123) : omega : 	0.138840091817 : d : 	(-0.268188071917 0.884097590017 0.382683432365)
	I63 : dAve : 	(-0.0123492826399 0.125384370808 0.0490873852123) : omega : 	0.138840091817 : d : 	(-0.0905560297858 0.91943080004 0.382683432365)
	I64 : dAve : 	(0.0123492826399 0.125384370808 -0.0490873852123) : omega : 	0.138840091817 : d : 	(0.0905560297858 0.91943080004 -0.382683432365)
	I65 : dAve : 	(0.0365732719135 0.120565919754 -0.0490873852123) : omega : 	0.138840091817 : d : 	(0.268188071917 0.884097590017 -0.382683432365)
	I66 : dAve : 	(0.059391770858 0.111114188018 -0.0490873852123) : omega : 	0.138840091817 : d : 	(0.435513796846 0.814789005418 -0.382683432365)
	I67 : dAve : 	(0.0799278773557 0.0973924003507 -0.0490873852123) : omega : 	0.138840091817 : d : 	(0.586102970801 0.714168536279 -0.382683432365)
	I68 : dAve : 	(0.0973924003507 0.0799278773557 -0.0490873852123) : omega : 	0.138840091817 : d : 	(0.714168536279 0.586102970801 -0.382683432365)
	I69 : dAve : 	(0.111114188018 0.059391770858 -0.0490873852123) : omega : 	0.138840091817 : d : 	(0.814789005418 0.435513796846 -0.382683432365)
	I70 : dAve : 	(0.120565919754 0.0365732719135 -0.0490873852123) : omega : 	0.138840091817 : d : 	(0.884097590017 0.268188071917 -0.382683432365)
	I71 : dAve : 	(0.125384370808 0.0123492826399 -0.0490873852123) : omega : 	0.138840091817 : d : 	(0.91943080004 0.0905560297858 -0.382683432365)
	I72 : dAve : 	(0.125384370808 -0.0123492826399 -0.0490873852123) : omega : 	0.138840091817 : d : 	(0.91943080004 -0.0905560297858 -0.382683432365)
	I73 : dAve : 	(0.120565919754 -0.0365732719135 -0.0490873852123) : omega : 	0.138840091817 : d : 	(0.884097590017 -0.268188071917 -0.382683432365)
	I74 : dAve : 	(0.111114188018 -0.059391770858 -0.0490873852123) : omega : 	0.138840091817 : d : 	(0.814789005418 -0.435513796846 -0.382683432365)
	I75 : dAve : 	(0.0973924003507 -0.0799278773557 -0.0490873852123) : omega : 	0.138840091817 : d : 	(0.714168536279 -0.586102970801 -0.382683432365)
	I76 : dAve : 	(0.0799278773557 -0.0973924003507 -0.0490873852123) : omega : 	0.138840091817 : d : 	(0.586102970801 -0.714168536279 -0.382683432365)
	I77 : dAve : 	(0.059391770858 -0.111114188018 -0.0490873852123) : omega : 	0.138840091817 : d : 	(0.435513796846 -0.814789005418 -0.382683432365)
	I78 : dAve : 	(0.0365732719135 -0.120565919754 -0.0490873852123) : omega : 	0.138840091817 : d : 	(0.268188071917 -0.884097590017 -0.382683432365)
	I79 : dAve : 	(0.0123492826399 -0.125384370808 -0.0490873852123) : omega : 	0.138840091817 : d : 	(0.0905560297858 -0.91943080004 -0.382683432365)
	I80 : dAve : 	(-0.0123492826399 -0.125384370808 -0.0490873852123) : omega : 	0.138840091817 : d : 	(-0.0905560297858 -0.91943080004 -0.382683432365)
	I81 : dAve : 	(-0.0365732719135 -0.120565919754 -0.0490873852123) : omega : 	0.138840091817 : d : 	(-0.268188071917 -0.884097590017 -0.382683432365)
	I82 : dAve : 	(-0.059391770858 -0.111114188018 -0.0490873852123) : omega : 	0.138840091817 : d : 	(-0.435513796846 -0.814789005418 -0.382683432365)
	I83 : dAve : 	(-0.0799278773557 -0.0973924003507 -0.0490873852123) : omega : 	0.138840091817 : d : 	(-0.586102970801 -0.714168536279 -0.382683432365)
	I84 : dAve : 	(-0.0973924003507 -0.0799278773557 -0.0490873852123) : omega : 	0.138840091817 : d : 	(-0.714168536279 -0.586102970801 -0.382683432365)
	I85 : dAve : 	(-0.111114188018 -0.059391770858 -0.0490873852123) : omega : 	0.138840091817 : d : 	(-0.814789005418 -0.435513796846 -0.382683432365)
	I86 : dAve : 	(-0.120565919754 -0.0365732719135 -0.0490873852123) : omega : 	0.138840091817 : d : 	(-0.884097590017 -0.268188071917 -0.382683432365)
	I87 : dAve : 	(-0.125384370808 -0.0123492826399 -0.0490873852123) : omega : 	0.138840091817 : d : 	(-0.91943080004 -0.0905560297858 -0.382683432365)
	I88 : dAve : 	(-0.125384370808 0.0123492826399 -0.0490873852123) : omega : 	0.138840091817 : d : 	(-0.91943080004 0.0905560297858 -0.382683432365)
	I89 : dAve : 	(-0.120565919754 0.0365732719135 -0.0490873852123) : omega : 	0.138840091817 : d : 	(-0.884097590017 0.268188071917 -0.382683432365)
	I90 : dAve : 	(-0.111114188018 0.059391770858 -0.0490873852123) : omega : 	0.138840091817 : d : 	(-0.814789005418 0.435513796846 -0.382683432365)
	I91 : dAve : 	(-0.0973924003507 0.0799278773557 -0.0490873852123) : omega : 	0.138840091817 : d : 	(-0.714168536279 0.586102970801 -0.382683432365)
	I92 : dAve : 	(-0.0799278773557 0.0973924003507 -0.0490873852123) : omega : 	0.138840091817 : d : 	(-0.586102970801 0.714168536279 -0.382683432365)
	I93 : dAve : 	(-0.059391770858 0.111114188018 -0.0490873852123) : omega : 	0.138840091817 : d : 	(-0.435513796846 0.814789005418 -0.382683432365)
	I94 : dAve : 	(-0.0365732719135 0.120565919754 -0.0490873852123) : omega : 	0.138840091817 : d : 	(-0.268188071917 0.884097590017 -0.382683432365)
	I95 : dAve : 	(-0.0123492826399 0.125384370808 -0.0490873852123) : omega : 	0.138840091817 : d : 	(-0.0905560297858 0.91943080004 -0.382683432365)
	I96 : dAve : 	(0.00274192284156 0.0278392098 -0.0490873852123) : omega : 	0.0575094490319 : d : 	(0.0375095356919 0.38084070704 -0.923879532511)
	I97 : dAve : 	(0.00812039796756 0.0267693645798 -0.0490873852123) : omega : 	0.0575094490319 : d : 	(0.111087136655 0.366205212247 -0.923879532511)
	I98 : dAve : 	(0.0131868107536 0.0246707876912 -0.0490873852123) : omega : 	0.0575094490319 : d : 	(0.180395721254 0.337496656517 -0.923879532511)
	I99 : dAve : 	(0.0177464617977 0.0216241262672 -0.0490873852123) : omega : 	0.0575094490319 : d : 	(0.242771799453 0.295818293547 -0.923879532511)
	I100 : dAve : 	(0.0216241262672 0.0177464617977 -0.0490873852123) : omega : 	0.0575094490319 : d : 	(0.295818293547 0.242771799453 -0.923879532511)
	I101 : dAve : 	(0.0246707876912 0.0131868107536 -0.0490873852123) : omega : 	0.0575094490319 : d : 	(0.337496656517 0.180395721254 -0.923879532511)
	I102 : dAve : 	(0.0267693645798 0.00812039796756 -0.0490873852123) : omega : 	0.0575094490319 : d : 	(0.366205212247 0.111087136655 -0.923879532511)
	I103 : dAve : 	(0.0278392098 0.00274192284156 -0.0490873852123) : omega : 	0.0575094490319 : d : 	(0.38084070704 0.0375095356919 -0.923879532511)
	I104 : dAve : 	(0.0278392098 -0.00274192284156 -0.0490873852123) : omega : 	0.0575094490319 : d : 	(0.38084070704 -0.0375095356919 -0.923879532511)
	I105 : dAve : 	(0.0267693645798 -0.00812039796756 -0.0490873852123) : omega : 	0.0575094490319 : d : 	(0.366205212247 -0.111087136655 -0.923879532511)
	I106 : dAve : 	(0.0246707876912 -0.0131868107536 -0.0490873852123) : omega : 	0.0575094490319 : d : 	(0.337496656517 -0.180395721254 -0.923879532511)
	I107 : dAve : 	(0.0216241262672 -0.0177464617977 -0.0490873852123) : omega : 	0.0575094490319 : d : 	(0.295818293547 -0.242771799453 -0.923879532511)
	I108 : dAve : 	(0.0177464617977 -0.0216241262672 -0.0490873852123) : omega : 	0.0575094490319 : d : 	(0.242771799453 -0.295818293547 -0.923879532511)
	I109 : dAve : 	(0.0131868107536 -0.0246707876912 -0.0490873852123) : omega : 	0.0575094490319 : d : 	(0.180395721254 -0.337496656517 -0.923879532511)
	I110 : dAve : 	(0.00812039796756 -0.0267693645798 -0.0490873852123) : omega : 	0.0575094490319 : d : 	(0.111087136655 -0.366205212247 -0.923879532511)
	I111 : dAve : 	(0.00274192284156 -0.0278392098 -0.0490873852123) : omega : 	0.0575094490319 : d : 	(0.0375095356919 -0.38084070704 -0.923879532511)
	I112 : dAve : 	(-0.00274192284156 -0.0278392098 -0.0490873852123) : omega : 	0.0575094490319 : d : 	(-0.0375095356919 -0.38084070704 -0.923879532511)
	I113 : dAve : 	(-0.00812039796756 -0.0267693645798 -0.0490873852123) : omega : 	0.0575094490319 : d : 	(-0.111087136655 -0.366205212247 -0.923879532511)
	I114 : dAve : 	(-0.0131868107536 -0.0246707876912 -0.0490873852123) : omega : 	0.0575094490319 : d : 	(-0.180395721254 -0.337496656517 -0.923879532511)
	I115 : dAve : 	(-0.0177464617977 -0.0216241262672 -0.0490873852123) : omega : 	0.0575094490319 : d : 	(-0.242771799453 -0.295818293547 -0.923879532511)
	I116 : dAve : 	(-0.0216241262672 -0.0177464617977 -0.0490873852123) : omega : 	0.0575094490319 : d : 	(-0.295818293547 -0.242771799453 -0.923879532511)
	I117 : dAve : 	(-0.0246707876912 -0.0131868107536 -0.0490873852123) : omega : 	0.0575094490319 : d : 	(-0.337496656517 -0.180395721254 -0.923879532511)
	I118 : dAve : 	(-0.0267693645798 -0.00812039796756 -0.0490873852123) : omega : 	0.0575094490319 : d : 	(-0.366205212247 -0.111087136655 -0.923879532511)
	I119 : dAve : 	(-0.0278392098 -0.00274192284156 -0.0490873852123) : omega : 	0.0575094490319 : d : 	(-0.38084070704 -0.0375095356919 -0.923879532511)
	I120 : dAve : 	(-0.0278392098 0.00274192284156 -0.0490873852123) : omega : 	0.0575094490319 : d : 	(-0.38084070704 0.0375095356919 -0.923879532511)
	I121 : dAve : 	(-0.0267693645798 0.00812039796756 -0.0490873852123) : omega : 	0.0575094490319 : d : 	(-0.366205212247 0.111087136655 -0.923879532511)
	I122 : dAve : 	(-0.0246707876912 0.0131868107536 -0.0490873852123) : omega : 	0.0575094490319 : d : 	(-0.337496656517 0.180395721254 -0.923879532511)
	I123 : dAve : 	(-0.0216241262672 0.0177464617977 -0.0490873852123) : omega : 	0.0575094490319 : d : 	(-0.295818293547 0.242771799453 -0.923879532511)
	I124 : dAve : 	(-0.0177464617977 0.0216241262672 -0.0490873852123) : omega : 	0.0575094490319 : d : 	(-0.242771799453 0.295818293547 -0.923879532511)
	I125 : dAve : 	(-0.0131868107536 0.0246707876912 -0.0490873852123) : omega : 	0.0575094490319 : d : 	(-0.180395721254 0.337496656517 -0.923879532511)
	I126 : dAve : 	(-0.00812039796756 0.0267693645798 -0.0490873852123) : omega : 	0.0575094490319 : d : 	(-0.111087136655 0.366205212247 -0.923879532511)
	I127 : dAve : 	(-0.00274192284156 0.0278392098 -0.0490873852123) : omega : 	0.0575094490319 : d : 	(-0.0375095356919 0.38084070704 -0.923879532511)
Total omega : 12.5663706144

Courant Number mean: 0 max: 0

Starting time loop

Sampled set:
    data -> csv

Sampled set:
    data -> csv

Sampled surface:
    yNormal -> ensight
        sampledCuttingPlane: yNormal : plane:(0 1 0) (0 0 0) offsets:(0)

Sampled surface:
    zNormal -> ensight
        sampledCuttingPlane: zNormal : plane:(0 0 1) (0 0 0) offsets:(0)

Sampled surface:
    patchAll -> ensight
        sampledPatch: patchAll : patches:(".*WW.*")

deltaT = 1
Time = 1

PIMPLE: iteration 1
Radiation solver iter: 0
DILUPBiCGStab:  Solving for ILambda_0_0, Initial residual = 1, Final residual = 2.23022453456e-64, No Iterations 2
DILUPBiCGStab:  Solving for ILambda_1_0, Initial residual = 1, Final residual = 3.92067046053e-64, No Iterations 2
DILUPBiCGStab:  Solving for ILambda_2_0, Initial residual = 1, Final residual = 2.75368130681e-64, No Iterations 2
DILUPBiCGStab:  Solving for ILambda_3_0, Initial residual = 1, Final residual = 1.13971840196e-64, No Iterations 2
DILUPBiCGStab:  Solving for ILambda_4_0, Initial residual = 1, Final residual = 2.20839682715e-63, No Iterations 2
DILUPBiCGStab:  Solving for ILambda_5_0, Initial residual = 1, Final residual = 2.00882361398e-64, No Iterations 2
DILUPBiCGStab:  Solving for ILambda_6_0, Initial residual = 1, Final residual = 1.2869351459e-64, No Iterations 2
DILUPBiCGStab:  Solving for ILambda_7_0, Initial residual = 1, Final residual = 4.73806809346e-64, No Iterations 2
DILUPBiCGStab:  Solving for ILambda_8_0, Initial residual = 1, Final residual = 1.58188061958e-62, No Iterations 12
DILUPBiCGStab:  Solving for ILambda_9_0, Initial residual = 1, Final residual = 4.83462312269e-61, No Iterations 14
DILUPBiCGStab:  Solving for ILambda_10_0, Initial residual = 1, Final residual = 8.04182454282e-61, No Iterations 15
DILUPBiCGStab:  Solving for ILambda_11_0, Initial residual = 1, Final residual = 3.06091102152e-63, No Iterations 16
DILUPBiCGStab:  Solving for ILambda_12_0, Initial residual = 1, Final residual = 4.67224638415e-63, No Iterations 16
DILUPBiCGStab:  Solving for ILambda_13_0, Initial residual = 1, Final residual = 6.25024967792e-62, No Iterations 15
DILUPBiCGStab:  Solving for ILambda_14_0, Initial residual = 1, Final residual = 4.143098639e-63, No Iterations 14
DILUPBiCGStab:  Solving for ILambda_15_0, Initial residual = 1, Final residual = 2.04639787066e-62, No Iterations 12
DILUPBiCGStab:  Solving for ILambda_16_0, Initial residual = 1, Final residual = 7.20369278612e-62, No Iterations 10
DILUPBiCGStab:  Solving for ILambda_17_0, Initial residual = 1, Final residual = 1.99510365571e-62, No Iterations 10
DILUPBiCGStab:  Solving for ILambda_18_0, Initial residual = 1, Final residual = 1.45989871179e-64, No Iterations 10
DILUPBiCGStab:  Solving for ILambda_19_0, Initial residual = 1, Final residual = 2.3067847581e-62, No Iterations 11
DILUPBiCGStab:  Solving for ILambda_20_0, Initial residual = 1, Final residual = 1.43167973571e-62, No Iterations 11
DILUPBiCGStab:  Solving for ILambda_21_0, Initial residual = 1, Final residual = 7.78473323346e-62, No Iterations 11
DILUPBiCGStab:  Solving for ILambda_22_0, Initial residual = 1, Final residual = 2.86102526367e-61, No Iterations 11
DILUPBiCGStab:  Solving for ILambda_23_0, Initial residual = 1, Final residual = 5.33876342929e-62, No Iterations 10
DILUPBiCGStab:  Solving for ILambda_24_0, Initial residual = 1, Final residual = 2.09067340716e-62, No Iterations 12
DILUPBiCGStab:  Solving for ILambda_25_0, Initial residual = 1, Final residual = 4.14110473728e-63, No Iterations 14
DILUPBiCGStab:  Solving for ILambda_26_0, Initial residual = 1, Final residual = 6.25016973575e-62, No Iterations 15
DILUPBiCGStab:  Solving for ILambda_27_0, Initial residual = 1, Final residual = 4.67224133672e-63, No Iterations 16
DILUPBiCGStab:  Solving for ILambda_28_0, Initial residual = 1, Final residual = 3.06091108052e-63, No Iterations 16
DILUPBiCGStab:  Solving for ILambda_29_0, Initial residual = 1, Final residual = 8.04270701221e-61, No Iterations 15
DILUPBiCGStab:  Solving for ILambda_30_0, Initial residual = 1, Final residual = 4.83443615628e-61, No Iterations 14
DILUPBiCGStab:  Solving for ILambda_31_0, Initial residual = 1, Final residual = 1.58174949734e-62, No Iterations 12
DILUPBiCGStab:  Solving for ILambda_32_0, Initial residual = 1, Final residual = 2.73665377552e-63, No Iterations 2
DILUPBiCGStab:  Solving for ILambda_33_0, Initial residual = 1, Final residual = 3.11221237168e-64, No Iterations 2
DILUPBiCGStab:  Solving for ILambda_34_0, Initial residual = 1, Final residual = 2.72453850115e-64, No Iterations 2
DILUPBiCGStab:  Solving for ILambda_35_0, Initial residual = 1, Final residual = 3.76793651642e-64, No Iterations 2
DILUPBiCGStab:  Solving for ILambda_36_0, Initial residual = 1, Final residual = 3.28724672014e-64, No Iterations 2
DILUPBiCGStab:  Solving for ILambda_37_0, Initial residual = 1, Final residual = 1.5807631182e-64, No Iterations 2
DILUPBiCGStab:  Solving for ILambda_38_0, Initial residual = 1, Final residual = 1.39799068702e-64, No Iterations 2
DILUPBiCGStab:  Solving for ILambda_39_0, Initial residual = 1, Final residual = 1.08744559445e-64, No Iterations 2
DILUPBiCGStab:  Solving for ILambda_40_0, Initial residual = 1, Final residual = 7.39590199348e-61, No Iterations 14
DILUPBiCGStab:  Solving for ILambda_41_0, Initial residual = 1, Final residual = 1.49524900674e-62, No Iterations 17
DILUPBiCGStab:  Solving for ILambda_42_0, Initial residual = 1, Final residual = 1.62211167758e-61, No Iterations 18
DILUPBiCGStab:  Solving for ILambda_43_0, Initial residual = 1, Final residual = 2.39335286923e-62, No Iterations 19
DILUPBiCGStab:  Solving for ILambda_44_0, Initial residual = 1, Final residual = 7.9888989855e-61, No Iterations 19
DILUPBiCGStab:  Solving for ILambda_45_0, Initial residual = 1, Final residual = 3.29794622402e-63, No Iterations 19
DILUPBiCGStab:  Solving for ILambda_46_0, Initial residual = 1, Final residual = 3.14144645562e-62, No Iterations 17
DILUPBiCGStab:  Solving for ILambda_47_0, Initial residual = 1, Final residual = 2.86028163959e-62, No Iterations 14
DILUPBiCGStab:  Solving for ILambda_48_0, Initial residual = 1, Final residual = 1.49113388391e-62, No Iterations 10
DILUPBiCGStab:  Solving for ILambda_49_0, Initial residual = 1, Final residual = 1.31561170728e-61, No Iterations 10
DILUPBiCGStab:  Solving for ILambda_50_0, Initial residual = 1, Final residual = 3.29968397101e-63, No Iterations 10
DILUPBiCGStab:  Solving for ILambda_51_0, Initial residual = 1, Final residual = 4.51891135179e-66, No Iterations 9
DILUPBiCGStab:  Solving for ILambda_52_0, Initial residual = 1, Final residual = 6.68740059002e-61, No Iterations 10
DILUPBiCGStab:  Solving for ILambda_53_0, Initial residual = 1, Final residual = 2.02409215808e-62, No Iterations 10
DILUPBiCGStab:  Solving for ILambda_54_0, Initial residual = 1, Final residual = 1.60322663761e-63, No Iterations 10
DILUPBiCGStab:  Solving for ILambda_55_0, Initial residual = 1, Final residual = 1.8148539005e-62, No Iterations 10
DILUPBiCGStab:  Solving for ILambda_56_0, Initial residual = 1, Final residual = 2.86027198654e-62, No Iterations 14
DILUPBiCGStab:  Solving for ILambda_57_0, Initial residual = 1, Final residual = 3.14144639965e-62, No Iterations 17
DILUPBiCGStab:  Solving for ILambda_58_0, Initial residual = 1, Final residual = 3.29794635243e-63, No Iterations 19
DILUPBiCGStab:  Solving for ILambda_59_0, Initial residual = 1, Final residual = 7.98889898044e-61, No Iterations 19
DILUPBiCGStab:  Solving for ILambda_60_0, Initial residual = 1, Final residual = 2.39335251097e-62, No Iterations 19
DILUPBiCGStab:  Solving for ILambda_61_0, Initial residual = 1, Final residual = 1.62211165385e-61, No Iterations 18
DILUPBiCGStab:  Solving for ILambda_62_0, Initial residual = 1, Final residual = 1.49524888981e-62, No Iterations 17
DILUPBiCGStab:  Solving for ILambda_63_0, Initial residual = 1, Final residual = 7.39590223666e-61, No Iterations 14
DILUPBiCGStab:  Solving for ILambda_64_0, Initial residual = 1, Final residual = 2.16615235161e-63, No Iterations 11
DILUPBiCGStab:  Solving for ILambda_65_0, Initial residual = 1, Final residual = 7.95888663692e-63, No Iterations 10
DILUPBiCGStab:  Solving for ILambda_66_0, Initial residual = 1, Final residual = 9.61909811273e-62, No Iterations 11
DILUPBiCGStab:  Solving for ILambda_67_0, Initial residual = 1, Final residual = 3.01304800324e-62, No Iterations 11
DILUPBiCGStab:  Solving for ILambda_68_0, Initial residual = 1, Final residual = 1.74819170883e-61, No Iterations 10
DILUPBiCGStab:  Solving for ILambda_69_0, Initial residual = 1, Final residual = 9.10361514939e-62, No Iterations 11
DILUPBiCGStab:  Solving for ILambda_70_0, Initial residual = 1, Final residual = 2.23594423036e-61, No Iterations 11
DILUPBiCGStab:  Solving for ILambda_71_0, Initial residual = 1, Final residual = 6.318439314e-65, No Iterations 11
DILUPBiCGStab:  Solving for ILambda_72_0, Initial residual = 1, Final residual = 3.18776639386e-62, No Iterations 14
DILUPBiCGStab:  Solving for ILambda_73_0, Initial residual = 1, Final residual = 4.82691249468e-62, No Iterations 17
DILUPBiCGStab:  Solving for ILambda_74_0, Initial residual = 1, Final residual = 2.28197941899e-62, No Iterations 19
DILUPBiCGStab:  Solving for ILambda_75_0, Initial residual = 1, Final residual = 8.53601843706e-62, No Iterations 19
DILUPBiCGStab:  Solving for ILambda_76_0, Initial residual = 1, Final residual = 2.49061686337e-62, No Iterations 19
DILUPBiCGStab:  Solving for ILambda_77_0, Initial residual = 1, Final residual = 5.17333790847e-61, No Iterations 18
DILUPBiCGStab:  Solving for ILambda_78_0, Initial residual = 1, Final residual = 1.56399586375e-62, No Iterations 17
DILUPBiCGStab:  Solving for ILambda_79_0, Initial residual = 1, Final residual = 2.56908692732e-62, No Iterations 14
DILUPBiCGStab:  Solving for ILambda_80_0, Initial residual = 1, Final residual = 6.45403982617e-64, No Iterations 2
DILUPBiCGStab:  Solving for ILambda_81_0, Initial residual = 1, Final residual = 2.81362663761e-63, No Iterations 2
DILUPBiCGStab:  Solving for ILambda_82_0, Initial residual = 1, Final residual = 9.70552099018e-64, No Iterations 2
DILUPBiCGStab:  Solving for ILambda_83_0, Initial residual = 1, Final residual = 2.11342501983e-64, No Iterations 2
DILUPBiCGStab:  Solving for ILambda_84_0, Initial residual = 1, Final residual = 3.8959588023e-64, No Iterations 2
DILUPBiCGStab:  Solving for ILambda_85_0, Initial residual = 1, Final residual = 3.08016104405e-64, No Iterations 2
DILUPBiCGStab:  Solving for ILambda_86_0, Initial residual = 1, Final residual = 1.88794031398e-63, No Iterations 2
DILUPBiCGStab:  Solving for ILambda_87_0, Initial residual = 1, Final residual = 2.97580239121e-64, No Iterations 2
DILUPBiCGStab:  Solving for ILambda_88_0, Initial residual = 1, Final residual = 2.56905553134e-62, No Iterations 14
DILUPBiCGStab:  Solving for ILambda_89_0, Initial residual = 1, Final residual = 1.56399597733e-62, No Iterations 17
DILUPBiCGStab:  Solving for ILambda_90_0, Initial residual = 1, Final residual = 5.17333698452e-61, No Iterations 18
DILUPBiCGStab:  Solving for ILambda_91_0, Initial residual = 1, Final residual = 2.49061681318e-62, No Iterations 19
DILUPBiCGStab:  Solving for ILambda_92_0, Initial residual = 1, Final residual = 8.53601843538e-62, No Iterations 19
DILUPBiCGStab:  Solving for ILambda_93_0, Initial residual = 1, Final residual = 2.28197934622e-62, No Iterations 19
DILUPBiCGStab:  Solving for ILambda_94_0, Initial residual = 1, Final residual = 4.82691124329e-62, No Iterations 17
DILUPBiCGStab:  Solving for ILambda_95_0, Initial residual = 1, Final residual = 3.18774867905e-62, No Iterations 14
DILUPBiCGStab:  Solving for ILambda_96_0, Initial residual = 1, Final residual = 8.22487172692e-61, No Iterations 10
DILUPBiCGStab:  Solving for ILambda_97_0, Initial residual = 1, Final residual = 4.20767095966e-63, No Iterations 10
DILUPBiCGStab:  Solving for ILambda_98_0, Initial residual = 1, Final residual = 3.28102027831e-63, No Iterations 11
DILUPBiCGStab:  Solving for ILambda_99_0, Initial residual = 1, Final residual = 6.04282478678e-65, No Iterations 11
DILUPBiCGStab:  Solving for ILambda_100_0, Initial residual = 1, Final residual = 5.75109863868e-61, No Iterations 11
DILUPBiCGStab:  Solving for ILambda_101_0, Initial residual = 1, Final residual = 8.8096041598e-61, No Iterations 11
DILUPBiCGStab:  Solving for ILambda_102_0, Initial residual = 1, Final residual = 1.49706632867e-63, No Iterations 10
DILUPBiCGStab:  Solving for ILambda_103_0, Initial residual = 1, Final residual = 3.42808208899e-62, No Iterations 11
DILUPBiCGStab:  Solving for ILambda_104_0, Initial residual = 1, Final residual = 3.82741637612e-62, No Iterations 12
DILUPBiCGStab:  Solving for ILambda_105_0, Initial residual = 1, Final residual = 1.29248160048e-62, No Iterations 14
DILUPBiCGStab:  Solving for ILambda_106_0, Initial residual = 1, Final residual = 1.61031731335e-61, No Iterations 15
DILUPBiCGStab:  Solving for ILambda_107_0, Initial residual = 1, Final residual = 9.60226678856e-63, No Iterations 16
DILUPBiCGStab:  Solving for ILambda_108_0, Initial residual = 1, Final residual = 5.91671961741e-63, No Iterations 16
DILUPBiCGStab:  Solving for ILambda_109_0, Initial residual = 1, Final residual = 4.23353923309e-61, No Iterations 15
DILUPBiCGStab:  Solving for ILambda_110_0, Initial residual = 1, Final residual = 3.98407791026e-61, No Iterations 14
DILUPBiCGStab:  Solving for ILambda_111_0, Initial residual = 1, Final residual = 1.68787559223e-62, No Iterations 12
DILUPBiCGStab:  Solving for ILambda_112_0, Initial residual = 1, Final residual = 4.0147135545e-64, No Iterations 2
DILUPBiCGStab:  Solving for ILambda_113_0, Initial residual = 1, Final residual = 2.96130272926e-64, No Iterations 2
DILUPBiCGStab:  Solving for ILambda_114_0, Initial residual = 1, Final residual = 2.06380739701e-64, No Iterations 2
DILUPBiCGStab:  Solving for ILambda_115_0, Initial residual = 1, Final residual = 3.43183240891e-64, No Iterations 2
DILUPBiCGStab:  Solving for ILambda_116_0, Initial residual = 1, Final residual = 9.04102183593e-65, No Iterations 2
DILUPBiCGStab:  Solving for ILambda_117_0, Initial residual = 1, Final residual = 1.46523909715e-64, No Iterations 2
DILUPBiCGStab:  Solving for ILambda_118_0, Initial residual = 1, Final residual = 2.47865083462e-64, No Iterations 2
DILUPBiCGStab:  Solving for ILambda_119_0, Initial residual = 1, Final residual = 3.63016997679e-64, No Iterations 2
DILUPBiCGStab:  Solving for ILambda_120_0, Initial residual = 1, Final residual = 1.68790973317e-62, No Iterations 12
DILUPBiCGStab:  Solving for ILambda_121_0, Initial residual = 1, Final residual = 3.98401002753e-61, No Iterations 14
DILUPBiCGStab:  Solving for ILambda_122_0, Initial residual = 1, Final residual = 4.23232161095e-61, No Iterations 15
DILUPBiCGStab:  Solving for ILambda_123_0, Initial residual = 1, Final residual = 5.91675514742e-63, No Iterations 16
DILUPBiCGStab:  Solving for ILambda_124_0, Initial residual = 1, Final residual = 9.60226703975e-63, No Iterations 16
DILUPBiCGStab:  Solving for ILambda_125_0, Initial residual = 1, Final residual = 1.61454260138e-61, No Iterations 15
DILUPBiCGStab:  Solving for ILambda_126_0, Initial residual = 1, Final residual = 8.37089941718e-63, No Iterations 14
DILUPBiCGStab:  Solving for ILambda_127_0, Initial residual = 1, Final residual = 3.8147991761e-62, No Iterations 12
Radiation solver iter: 1
DILUPBiCGStab:  Solving for ILambda_0_0, Initial residual = 2.25900945421e-16, Final residual = 1.82158313958e-64, No Iterations 2
DILUPBiCGStab:  Solving for ILambda_1_0, Initial residual = 2.13370230421e-16, Final residual = 5.08014663285e-64, No Iterations 2
DILUPBiCGStab:  Solving for ILambda_2_0, Initial residual = 2.36343207921e-16, Final residual = 2.78214966234e-64, No Iterations 2
DILUPBiCGStab:  Solving for ILambda_3_0, Initial residual = 1.76126160837e-16, Final residual = 3.88612902907e-64, No Iterations 2
DILUPBiCGStab:  Solving for ILambda_4_0, Initial residual = 1.7160118042e-16, Final residual = 1.61025189475e-64, No Iterations 2
DILUPBiCGStab:  Solving for ILambda_5_0, Initial residual = 1.8726457417e-16, Final residual = 2.4534791469e-64, No Iterations 2
DILUPBiCGStab:  Solving for ILambda_6_0, Initial residual = 2.14066381254e-16, Final residual = 2.71197532991e-64, No Iterations 2
DILUPBiCGStab:  Solving for ILambda_7_0, Initial residual = 1.95966459587e-16, Final residual = 1.91213021044e-64, No Iterations 2
DILUPBiCGStab:  Solving for ILambda_8_0, Initial residual = 4.26392385425e-16, Final residual = 2.81966807623e-62, No Iterations 9
DILUPBiCGStab:  Solving for ILambda_9_0, Initial residual = 4.32657742925e-16, Final residual = 1.32253507418e-62, No Iterations 10
DILUPBiCGStab:  Solving for ILambda_10_0, Initial residual = 4.65724907509e-16, Final residual = 2.13265844523e-61, No Iterations 11
DILUPBiCGStab:  Solving for ILambda_11_0, Initial residual = 4.77559471676e-16, Final residual = 3.56107855751e-64, No Iterations 12
DILUPBiCGStab:  Solving for ILambda_12_0, Initial residual = 5.47174555011e-16, Final residual = 4.90474740759e-62, No Iterations 11
DILUPBiCGStab:  Solving for ILambda_13_0, Initial residual = 4.67465284592e-16, Final residual = 9.91155403397e-63, No Iterations 11
DILUPBiCGStab:  Solving for ILambda_14_0, Initial residual = 5.21416974177e-16, Final residual = 6.85516725323e-61, No Iterations 10
DILUPBiCGStab:  Solving for ILambda_15_0, Initial residual = 5.05753580427e-16, Final residual = 2.65980126557e-63, No Iterations 9
DILUPBiCGStab:  Solving for ILambda_16_0, Initial residual = 4.41707703759e-16, Final residual = 2.12417423514e-62, No Iterations 7
DILUPBiCGStab:  Solving for ILambda_17_0, Initial residual = 4.45884608759e-16, Final residual = 3.41625338474e-63, No Iterations 7
DILUPBiCGStab:  Solving for ILambda_18_0, Initial residual = 3.76617600841e-16, Final residual = 1.45110859543e-61, No Iterations 6
DILUPBiCGStab:  Solving for ILambda_19_0, Initial residual = 4.62940304176e-16, Final residual = 2.0013574004e-61, No Iterations 7
DILUPBiCGStab:  Solving for ILambda_20_0, Initial residual = 3.87756014174e-16, Final residual = 1.25867823472e-61, No Iterations 6
DILUPBiCGStab:  Solving for ILambda_21_0, Initial residual = 4.69553737093e-16, Final residual = 5.33003823125e-61, No Iterations 7
DILUPBiCGStab:  Solving for ILambda_22_0, Initial residual = 5.0227282626e-16, Final residual = 4.32889819472e-61, No Iterations 7
DILUPBiCGStab:  Solving for ILambda_23_0, Initial residual = 5.28726557927e-16, Final residual = 2.57216116328e-61, No Iterations 7
DILUPBiCGStab:  Solving for ILambda_24_0, Initial residual = 4.47973061259e-16, Final residual = 7.16189134604e-62, No Iterations 9
DILUPBiCGStab:  Solving for ILambda_25_0, Initial residual = 4.47973061259e-16, Final residual = 2.96329134168e-61, No Iterations 10
DILUPBiCGStab:  Solving for ILambda_26_0, Initial residual = 4.86957507926e-16, Final residual = 7.05660626306e-61, No Iterations 11
DILUPBiCGStab:  Solving for ILambda_27_0, Initial residual = 4.84869055426e-16, Final residual = 6.01301141816e-62, No Iterations 11
DILUPBiCGStab:  Solving for ILambda_28_0, Initial residual = 4.48669212092e-16, Final residual = 4.90373822878e-62, No Iterations 11
DILUPBiCGStab:  Solving for ILambda_29_0, Initial residual = 4.22911631258e-16, Final residual = 3.7399148606e-62, No Iterations 11
DILUPBiCGStab:  Solving for ILambda_30_0, Initial residual = 4.20127027925e-16, Final residual = 1.36036212871e-62, No Iterations 10
DILUPBiCGStab:  Solving for ILambda_31_0, Initial residual = 4.21867405008e-16, Final residual = 5.98856812204e-63, No Iterations 9
DILUPBiCGStab:  Solving for ILambda_32_0, Initial residual = 6.8431626918e-16, Final residual = 9.64458362181e-64, No Iterations 2
DILUPBiCGStab:  Solving for ILambda_33_0, Initial residual = 5.26986180844e-16, Final residual = 8.90204983221e-64, No Iterations 2
DILUPBiCGStab:  Solving for ILambda_34_0, Initial residual = 5.45782253344e-16, Final residual = 7.69602587007e-64, No Iterations 2
DILUPBiCGStab:  Solving for ILambda_35_0, Initial residual = 5.29770784177e-16, Final residual = 7.24719882663e-64, No Iterations 2
DILUPBiCGStab:  Solving for ILambda_36_0, Initial residual = 5.12367013343e-16, Final residual = 8.51135391051e-64, No Iterations 2
DILUPBiCGStab:  Solving for ILambda_37_0, Initial residual = 5.47174555011e-16, Final residual = 7.24937011615e-64, No Iterations 2
DILUPBiCGStab:  Solving for ILambda_38_0, Initial residual = 5.0331705251e-16, Final residual = 6.94648590154e-64, No Iterations 2
DILUPBiCGStab:  Solving for ILambda_39_0, Initial residual = 5.33251538344e-16, Final residual = 6.39603935251e-64, No Iterations 2
DILUPBiCGStab:  Solving for ILambda_40_0, Initial residual = 9.56511245019e-16, Final residual = 1.55236994368e-61, No Iterations 10
DILUPBiCGStab:  Solving for ILambda_41_0, Initial residual = 1.17301415419e-15, Final residual = 3.07161897339e-62, No Iterations 13
DILUPBiCGStab:  Solving for ILambda_42_0, Initial residual = 1.22801007002e-15, Final residual = 1.43331353489e-62, No Iterations 14
DILUPBiCGStab:  Solving for ILambda_43_0, Initial residual = 1.21756780752e-15, Final residual = 5.29430051018e-61, No Iterations 14
DILUPBiCGStab:  Solving for ILambda_44_0, Initial residual = 1.16814109836e-15, Final residual = 3.92317020777e-62, No Iterations 14
DILUPBiCGStab:  Solving for ILambda_45_0, Initial residual = 1.21130245002e-15, Final residual = 1.93013246056e-61, No Iterations 14
DILUPBiCGStab:  Solving for ILambda_46_0, Initial residual = 1.24680614252e-15, Final residual = 1.794900365e-62, No Iterations 13
DILUPBiCGStab:  Solving for ILambda_47_0, Initial residual = 1.09713371335e-15, Final residual = 8.88775438162e-62, No Iterations 11
DILUPBiCGStab:  Solving for ILambda_48_0, Initial residual = 1.08599530002e-15, Final residual = 2.33049005326e-61, No Iterations 7
DILUPBiCGStab:  Solving for ILambda_49_0, Initial residual = 1.18902562336e-15, Final residual = 9.03892798186e-63, No Iterations 7
DILUPBiCGStab:  Solving for ILambda_50_0, Initial residual = 9.83661127519e-16, Final residual = 1.18242604628e-62, No Iterations 7
DILUPBiCGStab:  Solving for ILambda_51_0, Initial residual = 1.04770700419e-15, Final residual = 1.48552657304e-61, No Iterations 7
DILUPBiCGStab:  Solving for ILambda_52_0, Initial residual = 1.05258006002e-15, Final residual = 5.31557686808e-63, No Iterations 6
DILUPBiCGStab:  Solving for ILambda_53_0, Initial residual = 9.91318786686e-16, Final residual = 2.27688473357e-63, No Iterations 7
DILUPBiCGStab:  Solving for ILambda_54_0, Initial residual = 1.03239168585e-15, Final residual = 1.9328505117e-63, No Iterations 7
DILUPBiCGStab:  Solving for ILambda_55_0, Initial residual = 9.91318786686e-16, Final residual = 1.13379917647e-63, No Iterations 6
DILUPBiCGStab:  Solving for ILambda_56_0, Initial residual = 1.13402970752e-15, Final residual = 3.47100654281e-62, No Iterations 11
DILUPBiCGStab:  Solving for ILambda_57_0, Initial residual = 1.25515995252e-15, Final residual = 3.4860516124e-62, No Iterations 13
DILUPBiCGStab:  Solving for ILambda_58_0, Initial residual = 1.19111407586e-15, Final residual = 4.19067098226e-62, No Iterations 14
DILUPBiCGStab:  Solving for ILambda_59_0, Initial residual = 1.17788721002e-15, Final residual = 5.5655199394e-61, No Iterations 14
DILUPBiCGStab:  Solving for ILambda_60_0, Initial residual = 1.25028689669e-15, Final residual = 6.48764045385e-62, No Iterations 14
DILUPBiCGStab:  Solving for ILambda_61_0, Initial residual = 1.21687165669e-15, Final residual = 7.72428017063e-61, No Iterations 13
DILUPBiCGStab:  Solving for ILambda_62_0, Initial residual = 1.12289129419e-15, Final residual = 2.00557589026e-61, No Iterations 13
DILUPBiCGStab:  Solving for ILambda_63_0, Initial residual = 1.19181022669e-15, Final residual = 1.17541284706e-61, No Iterations 10
DILUPBiCGStab:  Solving for ILambda_64_0, Initial residual = 1.00733025585e-15, Final residual = 4.49203360676e-62, No Iterations 7
DILUPBiCGStab:  Solving for ILambda_65_0, Initial residual = 1.03448013835e-15, Final residual = 2.1906998617e-63, No Iterations 7
DILUPBiCGStab:  Solving for ILambda_66_0, Initial residual = 1.06650307669e-15, Final residual = 4.40398192571e-64, No Iterations 8
DILUPBiCGStab:  Solving for ILambda_67_0, Initial residual = 9.34234418351e-16, Final residual = 4.05540006323e-64, No Iterations 7
DILUPBiCGStab:  Solving for ILambda_68_0, Initial residual = 9.76003468352e-16, Final residual = 6.1939798244e-61, No Iterations 6
DILUPBiCGStab:  Solving for ILambda_69_0, Initial residual = 1.04979545669e-15, Final residual = 2.5698953554e-62, No Iterations 7
DILUPBiCGStab:  Solving for ILambda_70_0, Initial residual = 9.66953507519e-16, Final residual = 4.67811122481e-62, No Iterations 7
DILUPBiCGStab:  Solving for ILambda_71_0, Initial residual = 1.18554486919e-15, Final residual = 3.31878441109e-63, No Iterations 7
DILUPBiCGStab:  Solving for ILambda_72_0, Initial residual = 1.08251454585e-15, Final residual = 6.94392654767e-62, No Iterations 11
DILUPBiCGStab:  Solving for ILambda_73_0, Initial residual = 1.11314518252e-15, Final residual = 1.83816624258e-61, No Iterations 13
DILUPBiCGStab:  Solving for ILambda_74_0, Initial residual = 1.23845233252e-15, Final residual = 8.46737019882e-61, No Iterations 14
DILUPBiCGStab:  Solving for ILambda_75_0, Initial residual = 1.28787904169e-15, Final residual = 8.01805938012e-61, No Iterations 14
DILUPBiCGStab:  Solving for ILambda_76_0, Initial residual = 1.28161368419e-15, Final residual = 5.81083935698e-61, No Iterations 14
DILUPBiCGStab:  Solving for ILambda_77_0, Initial residual = 1.18902562336e-15, Final residual = 3.41838242403e-61, No Iterations 14
DILUPBiCGStab:  Solving for ILambda_78_0, Initial residual = 1.10061446752e-15, Final residual = 6.54937405057e-61, No Iterations 12
DILUPBiCGStab:  Solving for ILambda_79_0, Initial residual = 1.26769066752e-15, Final residual = 5.98926881522e-62, No Iterations 10
DILUPBiCGStab:  Solving for ILambda_80_0, Initial residual = 6.12612733345e-16, Final residual = 8.14122589592e-64, No Iterations 2
DILUPBiCGStab:  Solving for ILambda_81_0, Initial residual = 5.78501342511e-16, Final residual = 8.74074007862e-64, No Iterations 2
DILUPBiCGStab:  Solving for ILambda_82_0, Initial residual = 7.18427660014e-16, Final residual = 1.00130955772e-63, No Iterations 2
DILUPBiCGStab:  Solving for ILambda_83_0, Initial residual = 5.65970627511e-16, Final residual = 7.85367623522e-64, No Iterations 2
DILUPBiCGStab:  Solving for ILambda_84_0, Initial residual = 6.07043526678e-16, Final residual = 1.12843964392e-63, No Iterations 2
DILUPBiCGStab:  Solving for ILambda_85_0, Initial residual = 5.21416974177e-16, Final residual = 7.51167465045e-64, No Iterations 2
DILUPBiCGStab:  Solving for ILambda_86_0, Initial residual = 5.98689716678e-16, Final residual = 9.56084866571e-64, No Iterations 2
DILUPBiCGStab:  Solving for ILambda_87_0, Initial residual = 5.69451381678e-16, Final residual = 1.38440350736e-63, No Iterations 2
DILUPBiCGStab:  Solving for ILambda_88_0, Initial residual = 1.09852601502e-15, Final residual = 7.90120076178e-62, No Iterations 10
DILUPBiCGStab:  Solving for ILambda_89_0, Initial residual = 1.12080284169e-15, Final residual = 4.8252249316e-62, No Iterations 13
DILUPBiCGStab:  Solving for ILambda_90_0, Initial residual = 1.23218697502e-15, Final residual = 5.25940095754e-61, No Iterations 13
DILUPBiCGStab:  Solving for ILambda_91_0, Initial residual = 1.24680614252e-15, Final residual = 1.77555622138e-61, No Iterations 14
DILUPBiCGStab:  Solving for ILambda_92_0, Initial residual = 1.25028689669e-15, Final residual = 6.37977444021e-61, No Iterations 14
DILUPBiCGStab:  Solving for ILambda_93_0, Initial residual = 1.32895194086e-15, Final residual = 1.93101159736e-61, No Iterations 14
DILUPBiCGStab:  Solving for ILambda_94_0, Initial residual = 1.19250637752e-15, Final residual = 1.48551166386e-62, No Iterations 13
DILUPBiCGStab:  Solving for ILambda_95_0, Initial residual = 1.13890276336e-15, Final residual = 1.33072108248e-61, No Iterations 11
DILUPBiCGStab:  Solving for ILambda_96_0, Initial residual = 5.1375931501e-16, Final residual = 3.16921652314e-63, No Iterations 8
DILUPBiCGStab:  Solving for ILambda_97_0, Initial residual = 4.27784687092e-16, Final residual = 9.65364463418e-62, No Iterations 7
DILUPBiCGStab:  Solving for ILambda_98_0, Initial residual = 4.53890343342e-16, Final residual = 1.06834788822e-62, No Iterations 8
DILUPBiCGStab:  Solving for ILambda_99_0, Initial residual = 4.51105740009e-16, Final residual = 1.18794526874e-63, No Iterations 8
DILUPBiCGStab:  Solving for ILambda_100_0, Initial residual = 4.29176988758e-16, Final residual = 4.1468364936e-62, No Iterations 7
DILUPBiCGStab:  Solving for ILambda_101_0, Initial residual = 4.37878874175e-16, Final residual = 8.14356266393e-64, No Iterations 8
DILUPBiCGStab:  Solving for ILambda_102_0, Initial residual = 3.95761748758e-16, Final residual = 1.38107018667e-62, No Iterations 6
DILUPBiCGStab:  Solving for ILambda_103_0, Initial residual = 4.55630720426e-16, Final residual = 3.81191239685e-61, No Iterations 6
DILUPBiCGStab:  Solving for ILambda_104_0, Initial residual = 4.19778952508e-16, Final residual = 2.06063777843e-63, No Iterations 9
DILUPBiCGStab:  Solving for ILambda_105_0, Initial residual = 5.23505426677e-16, Final residual = 7.08865083529e-61, No Iterations 10
DILUPBiCGStab:  Solving for ILambda_106_0, Initial residual = 4.40315402092e-16, Final residual = 2.22829045922e-61, No Iterations 11
DILUPBiCGStab:  Solving for ILambda_107_0, Initial residual = 4.73730642093e-16, Final residual = 6.24601137214e-62, No Iterations 11
DILUPBiCGStab:  Solving for ILambda_108_0, Initial residual = 4.9287479001e-16, Final residual = 1.84182908827e-62, No Iterations 11
DILUPBiCGStab:  Solving for ILambda_109_0, Initial residual = 5.07842032927e-16, Final residual = 1.27967494652e-61, No Iterations 11
DILUPBiCGStab:  Solving for ILambda_110_0, Initial residual = 4.55978795842e-16, Final residual = 1.30465961255e-62, No Iterations 10
DILUPBiCGStab:  Solving for ILambda_111_0, Initial residual = 4.08988614591e-16, Final residual = 5.80823243201e-62, No Iterations 9
DILUPBiCGStab:  Solving for ILambda_112_0, Initial residual = 2.46437395005e-16, Final residual = 1.83175461523e-64, No Iterations 2
DILUPBiCGStab:  Solving for ILambda_113_0, Initial residual = 2.27989397921e-16, Final residual = 3.10309522967e-64, No Iterations 2
DILUPBiCGStab:  Solving for ILambda_114_0, Initial residual = 1.82739593754e-16, Final residual = 3.09496134231e-64, No Iterations 2
DILUPBiCGStab:  Solving for ILambda_115_0, Initial residual = 2.06060646671e-16, Final residual = 1.86970804141e-64, No Iterations 2
DILUPBiCGStab:  Solving for ILambda_116_0, Initial residual = 1.83783820004e-16, Final residual = 7.26133711398e-64, No Iterations 2
DILUPBiCGStab:  Solving for ILambda_117_0, Initial residual = 1.8517612167e-16, Final residual = 2.32531469908e-64, No Iterations 2
DILUPBiCGStab:  Solving for ILambda_118_0, Initial residual = 1.75081934587e-16, Final residual = 1.6715642555e-64, No Iterations 2
DILUPBiCGStab:  Solving for ILambda_119_0, Initial residual = 2.10237551671e-16, Final residual = 3.70217742682e-64, No Iterations 2
DILUPBiCGStab:  Solving for ILambda_120_0, Initial residual = 4.52498041675e-16, Final residual = 5.99960536173e-63, No Iterations 9
DILUPBiCGStab:  Solving for ILambda_121_0, Initial residual = 5.39516895844e-16, Final residual = 2.19672153168e-62, No Iterations 10
DILUPBiCGStab:  Solving for ILambda_122_0, Initial residual = 4.65028756676e-16, Final residual = 1.05423395356e-61, No Iterations 11
DILUPBiCGStab:  Solving for ILambda_123_0, Initial residual = 4.28132762508e-16, Final residual = 2.50243322052e-62, No Iterations 11
DILUPBiCGStab:  Solving for ILambda_124_0, Initial residual = 5.0958241001e-16, Final residual = 9.37730025556e-64, No Iterations 12
DILUPBiCGStab:  Solving for ILambda_125_0, Initial residual = 5.0853818376e-16, Final residual = 4.10666253789e-61, No Iterations 11
DILUPBiCGStab:  Solving for ILambda_126_0, Initial residual = 4.45536533342e-16, Final residual = 2.04978312886e-61, No Iterations 10
DILUPBiCGStab:  Solving for ILambda_127_0, Initial residual = 4.02723257091e-16, Final residual = 6.1514370198e-63, No Iterations 9
min/max(T) = 1000, 1000
PIMPLE: iteration 2
Radiation solver iter: 0
DILUPBiCGStab:  Solving for ILambda_0_0, Initial residual = 1.99447213754e-16, Final residual = 3.97120310977e-64, No Iterations 2
DILUPBiCGStab:  Solving for ILambda_1_0, Initial residual = 1.69860803337e-16, Final residual = 2.44673801299e-64, No Iterations 2
DILUPBiCGStab:  Solving for ILambda_2_0, Initial residual = 1.94922233337e-16, Final residual = 2.01672349969e-64, No Iterations 2
DILUPBiCGStab:  Solving for ILambda_3_0, Initial residual = 1.5071665542e-16, Final residual = 5.14393653149e-64, No Iterations 2
DILUPBiCGStab:  Solving for ILambda_4_0, Initial residual = 1.52457032503e-16, Final residual = 1.11345781312e-64, No Iterations 2
DILUPBiCGStab:  Solving for ILambda_5_0, Initial residual = 1.68120426253e-16, Final residual = 1.76350668895e-64, No Iterations 2
DILUPBiCGStab:  Solving for ILambda_6_0, Initial residual = 1.97010685837e-16, Final residual = 5.36591029313e-64, No Iterations 2
DILUPBiCGStab:  Solving for ILambda_7_0, Initial residual = 1.72297331253e-16, Final residual = 1.85660538577e-64, No Iterations 2
DILUPBiCGStab:  Solving for ILambda_8_0, Initial residual = 2.24856719171e-16, Final residual = 4.55967793037e-63, No Iterations 9
DILUPBiCGStab:  Solving for ILambda_9_0, Initial residual = 2.42956640838e-16, Final residual = 5.01295822662e-63, No Iterations 10
DILUPBiCGStab:  Solving for ILambda_10_0, Initial residual = 2.53398903338e-16, Final residual = 2.78986065983e-61, No Iterations 11
DILUPBiCGStab:  Solving for ILambda_11_0, Initial residual = 2.03624118754e-16, Final residual = 7.23647324827e-62, No Iterations 11
DILUPBiCGStab:  Solving for ILambda_12_0, Initial residual = 2.09889476254e-16, Final residual = 3.28655748269e-62, No Iterations 11
DILUPBiCGStab:  Solving for ILambda_13_0, Initial residual = 2.32862453755e-16, Final residual = 1.79826830671e-61, No Iterations 11
DILUPBiCGStab:  Solving for ILambda_14_0, Initial residual = 2.44348942505e-16, Final residual = 2.26967201324e-61, No Iterations 10
DILUPBiCGStab:  Solving for ILambda_15_0, Initial residual = 2.42608565421e-16, Final residual = 2.09406900245e-63, No Iterations 9
DILUPBiCGStab:  Solving for ILambda_16_0, Initial residual = 2.25204794588e-16, Final residual = 1.32079625379e-64, No Iterations 6
DILUPBiCGStab:  Solving for ILambda_17_0, Initial residual = 2.42260490005e-16, Final residual = 2.83635524187e-63, No Iterations 6
DILUPBiCGStab:  Solving for ILambda_18_0, Initial residual = 1.97010685837e-16, Final residual = 6.03010632189e-64, No Iterations 6
DILUPBiCGStab:  Solving for ILambda_19_0, Initial residual = 2.39475886671e-16, Final residual = 2.59816838165e-61, No Iterations 7
DILUPBiCGStab:  Solving for ILambda_20_0, Initial residual = 2.09193325421e-16, Final residual = 7.27315187554e-65, No Iterations 6
DILUPBiCGStab:  Solving for ILambda_21_0, Initial residual = 2.73935352922e-16, Final residual = 6.75036517544e-64, No Iterations 7
DILUPBiCGStab:  Solving for ILambda_22_0, Initial residual = 2.80548785839e-16, Final residual = 4.44423841383e-62, No Iterations 7
DILUPBiCGStab:  Solving for ILambda_23_0, Initial residual = 2.97604481256e-16, Final residual = 1.88285448579e-61, No Iterations 7
DILUPBiCGStab:  Solving for ILambda_24_0, Initial residual = 2.15110607504e-16, Final residual = 6.8812696938e-61, No Iterations 9
DILUPBiCGStab:  Solving for ILambda_25_0, Initial residual = 2.63493090422e-16, Final residual = 1.66023463547e-61, No Iterations 10
DILUPBiCGStab:  Solving for ILambda_26_0, Initial residual = 2.38083585005e-16, Final residual = 4.11243554065e-61, No Iterations 11
DILUPBiCGStab:  Solving for ILambda_27_0, Initial residual = 2.32166302921e-16, Final residual = 7.46305988198e-62, No Iterations 11
DILUPBiCGStab:  Solving for ILambda_28_0, Initial residual = 2.30077850421e-16, Final residual = 9.59634193284e-63, No Iterations 11
DILUPBiCGStab:  Solving for ILambda_29_0, Initial residual = 2.42956640838e-16, Final residual = 2.44924087024e-61, No Iterations 11
DILUPBiCGStab:  Solving for ILambda_30_0, Initial residual = 2.37735509588e-16, Final residual = 4.03782839262e-63, No Iterations 10
DILUPBiCGStab:  Solving for ILambda_31_0, Initial residual = 2.46437395005e-16, Final residual = 4.83416697584e-63, No Iterations 9
DILUPBiCGStab:  Solving for ILambda_32_0, Initial residual = 5.61793722511e-16, Final residual = 7.39065915791e-64, No Iterations 2
DILUPBiCGStab:  Solving for ILambda_33_0, Initial residual = 4.98443996676e-16, Final residual = 7.40036139635e-64, No Iterations 2
DILUPBiCGStab:  Solving for ILambda_34_0, Initial residual = 5.42301499177e-16, Final residual = 6.69498202905e-64, No Iterations 2
DILUPBiCGStab:  Solving for ILambda_35_0, Initial residual = 4.88697885009e-16, Final residual = 6.70028735669e-64, No Iterations 2
DILUPBiCGStab:  Solving for ILambda_36_0, Initial residual = 5.02620901676e-16, Final residual = 5.85084066326e-64, No Iterations 2
DILUPBiCGStab:  Solving for ILambda_37_0, Initial residual = 4.95659393343e-16, Final residual = 5.73306890644e-64, No Iterations 2
DILUPBiCGStab:  Solving for ILambda_38_0, Initial residual = 4.66421058342e-16, Final residual = 6.91558412756e-64, No Iterations 2
DILUPBiCGStab:  Solving for ILambda_39_0, Initial residual = 4.81736376676e-16, Final residual = 6.91788337741e-64, No Iterations 2
DILUPBiCGStab:  Solving for ILambda_40_0, Initial residual = 5.64578325844e-16, Final residual = 7.83479780408e-62, No Iterations 10
DILUPBiCGStab:  Solving for ILambda_41_0, Initial residual = 6.02866621678e-16, Final residual = 1.8377900837e-61, No Iterations 12
DILUPBiCGStab:  Solving for ILambda_42_0, Initial residual = 6.7178555418e-16, Final residual = 1.849862481e-62, No Iterations 14
DILUPBiCGStab:  Solving for ILambda_43_0, Initial residual = 5.79197493345e-16, Final residual = 2.30796431307e-61, No Iterations 14
DILUPBiCGStab:  Solving for ILambda_44_0, Initial residual = 6.11916582512e-16, Final residual = 2.67633314313e-61, No Iterations 14
DILUPBiCGStab:  Solving for ILambda_45_0, Initial residual = 5.68059080011e-16, Final residual = 9.42976441459e-63, No Iterations 14
DILUPBiCGStab:  Solving for ILambda_46_0, Initial residual = 6.36281861679e-16, Final residual = 3.93676172461e-61, No Iterations 13
DILUPBiCGStab:  Solving for ILambda_47_0, Initial residual = 6.15397336679e-16, Final residual = 4.83416609318e-62, No Iterations 11
DILUPBiCGStab:  Solving for ILambda_48_0, Initial residual = 6.28624202512e-16, Final residual = 8.15128929312e-61, No Iterations 6
DILUPBiCGStab:  Solving for ILambda_49_0, Initial residual = 6.73177855846e-16, Final residual = 2.49859771163e-63, No Iterations 7
DILUPBiCGStab:  Solving for ILambda_50_0, Initial residual = 6.07739677512e-16, Final residual = 2.92230886967e-62, No Iterations 6
DILUPBiCGStab:  Solving for ILambda_51_0, Initial residual = 5.58312968344e-16, Final residual = 1.02002839602e-61, No Iterations 6
DILUPBiCGStab:  Solving for ILambda_52_0, Initial residual = 5.94512811678e-16, Final residual = 4.64466405009e-61, No Iterations 6
DILUPBiCGStab:  Solving for ILambda_53_0, Initial residual = 5.15151616677e-16, Final residual = 4.1253207229e-61, No Iterations 6
DILUPBiCGStab:  Solving for ILambda_54_0, Initial residual = 5.95208962512e-16, Final residual = 1.05448129741e-62, No Iterations 7
DILUPBiCGStab:  Solving for ILambda_55_0, Initial residual = 5.18632370843e-16, Final residual = 1.8303694336e-63, No Iterations 6
DILUPBiCGStab:  Solving for ILambda_56_0, Initial residual = 5.47174555011e-16, Final residual = 1.32335864946e-62, No Iterations 11
DILUPBiCGStab:  Solving for ILambda_57_0, Initial residual = 6.02866621678e-16, Final residual = 4.28573846038e-62, No Iterations 13
DILUPBiCGStab:  Solving for ILambda_58_0, Initial residual = 6.69000950846e-16, Final residual = 1.48044871659e-62, No Iterations 14
DILUPBiCGStab:  Solving for ILambda_59_0, Initial residual = 5.72235985011e-16, Final residual = 3.07550045807e-61, No Iterations 14
DILUPBiCGStab:  Solving for ILambda_60_0, Initial residual = 6.46724124179e-16, Final residual = 6.30931500811e-62, No Iterations 14
DILUPBiCGStab:  Solving for ILambda_61_0, Initial residual = 6.04258923345e-16, Final residual = 1.82580951699e-61, No Iterations 13
DILUPBiCGStab:  Solving for ILambda_62_0, Initial residual = 5.40213046677e-16, Final residual = 4.05445880381e-61, No Iterations 12
DILUPBiCGStab:  Solving for ILambda_63_0, Initial residual = 6.32801107512e-16, Final residual = 7.33521813603e-62, No Iterations 10
DILUPBiCGStab:  Solving for ILambda_64_0, Initial residual = 6.14005035012e-16, Final residual = 1.63132362747e-61, No Iterations 7
DILUPBiCGStab:  Solving for ILambda_65_0, Initial residual = 5.47870705844e-16, Final residual = 2.26640393885e-63, No Iterations 6
DILUPBiCGStab:  Solving for ILambda_66_0, Initial residual = 6.93366230013e-16, Final residual = 3.85888027522e-62, No Iterations 6
DILUPBiCGStab:  Solving for ILambda_67_0, Initial residual = 5.54832214177e-16, Final residual = 6.92324644983e-63, No Iterations 6
DILUPBiCGStab:  Solving for ILambda_68_0, Initial residual = 5.72235985011e-16, Final residual = 1.0705560707e-62, No Iterations 6
DILUPBiCGStab:  Solving for ILambda_69_0, Initial residual = 6.00778169178e-16, Final residual = 1.60634837655e-61, No Iterations 7
DILUPBiCGStab:  Solving for ILambda_70_0, Initial residual = 5.21416974177e-16, Final residual = 2.04222402652e-62, No Iterations 7
DILUPBiCGStab:  Solving for ILambda_71_0, Initial residual = 6.51597180013e-16, Final residual = 3.44595581473e-62, No Iterations 6
DILUPBiCGStab:  Solving for ILambda_72_0, Initial residual = 5.96601264178e-16, Final residual = 1.49693322834e-61, No Iterations 11
DILUPBiCGStab:  Solving for ILambda_73_0, Initial residual = 6.04955074178e-16, Final residual = 5.5302776079e-62, No Iterations 13
DILUPBiCGStab:  Solving for ILambda_74_0, Initial residual = 6.6969710168e-16, Final residual = 9.42720652676e-61, No Iterations 13
DILUPBiCGStab:  Solving for ILambda_75_0, Initial residual = 6.34193409179e-16, Final residual = 1.0807595231e-61, No Iterations 14
DILUPBiCGStab:  Solving for ILambda_76_0, Initial residual = 6.50901029179e-16, Final residual = 2.88369553114e-61, No Iterations 14
DILUPBiCGStab:  Solving for ILambda_77_0, Initial residual = 5.88247454178e-16, Final residual = 7.17273929802e-62, No Iterations 14
DILUPBiCGStab:  Solving for ILambda_78_0, Initial residual = 6.48116425846e-16, Final residual = 4.82106433202e-63, No Iterations 13
DILUPBiCGStab:  Solving for ILambda_79_0, Initial residual = 6.07043526678e-16, Final residual = 4.82630362277e-62, No Iterations 10
DILUPBiCGStab:  Solving for ILambda_80_0, Initial residual = 5.45782253344e-16, Final residual = 1.32785202828e-63, No Iterations 2
DILUPBiCGStab:  Solving for ILambda_81_0, Initial residual = 5.1793622001e-16, Final residual = 7.55911346247e-64, No Iterations 2
DILUPBiCGStab:  Solving for ILambda_82_0, Initial residual = 6.11916582512e-16, Final residual = 8.22928623655e-64, No Iterations 2
DILUPBiCGStab:  Solving for ILambda_83_0, Initial residual = 5.2420157751e-16, Final residual = 9.58435324957e-64, No Iterations 2
DILUPBiCGStab:  Solving for ILambda_84_0, Initial residual = 5.84766700011e-16, Final residual = 1.17677147505e-63, No Iterations 2
DILUPBiCGStab:  Solving for ILambda_85_0, Initial residual = 4.69901812509e-16, Final residual = 6.17873880869e-64, No Iterations 2
DILUPBiCGStab:  Solving for ILambda_86_0, Initial residual = 5.52047610844e-16, Final residual = 1.21195690504e-63, No Iterations 2
DILUPBiCGStab:  Solving for ILambda_87_0, Initial residual = 4.53890343342e-16, Final residual = 6.44237543093e-64, No Iterations 2
DILUPBiCGStab:  Solving for ILambda_88_0, Initial residual = 5.21416974177e-16, Final residual = 4.11543745158e-62, No Iterations 10
DILUPBiCGStab:  Solving for ILambda_89_0, Initial residual = 6.12612733345e-16, Final residual = 8.00096851079e-61, No Iterations 12
DILUPBiCGStab:  Solving for ILambda_90_0, Initial residual = 6.89189325013e-16, Final residual = 2.34419456535e-63, No Iterations 14
DILUPBiCGStab:  Solving for ILambda_91_0, Initial residual = 6.20966543345e-16, Final residual = 4.65840596618e-62, No Iterations 14
DILUPBiCGStab:  Solving for ILambda_92_0, Initial residual = 6.64127895013e-16, Final residual = 4.71207793057e-62, No Iterations 14
DILUPBiCGStab:  Solving for ILambda_93_0, Initial residual = 6.43243370012e-16, Final residual = 1.28538815174e-61, No Iterations 14
DILUPBiCGStab:  Solving for ILambda_94_0, Initial residual = 5.68755230844e-16, Final residual = 1.08320889492e-62, No Iterations 13
DILUPBiCGStab:  Solving for ILambda_95_0, Initial residual = 6.28624202512e-16, Final residual = 1.76803155551e-62, No Iterations 11
DILUPBiCGStab:  Solving for ILambda_96_0, Initial residual = 2.72891126672e-16, Final residual = 2.64791779811e-61, No Iterations 6
DILUPBiCGStab:  Solving for ILambda_97_0, Initial residual = 2.56531582088e-16, Final residual = 1.28967542433e-62, No Iterations 6
DILUPBiCGStab:  Solving for ILambda_98_0, Initial residual = 3.08394819173e-16, Final residual = 6.83910840422e-62, No Iterations 7
DILUPBiCGStab:  Solving for ILambda_99_0, Initial residual = 2.64189241255e-16, Final residual = 9.1203005712e-63, No Iterations 7
DILUPBiCGStab:  Solving for ILambda_100_0, Initial residual = 2.39475886671e-16, Final residual = 1.09788462936e-62, No Iterations 7
DILUPBiCGStab:  Solving for ILambda_101_0, Initial residual = 2.78112257922e-16, Final residual = 2.10936689675e-62, No Iterations 7
DILUPBiCGStab:  Solving for ILambda_102_0, Initial residual = 2.39475886671e-16, Final residual = 1.79725173681e-61, No Iterations 6
DILUPBiCGStab:  Solving for ILambda_103_0, Initial residual = 1.81347292087e-16, Final residual = 2.05352827458e-62, No Iterations 6
DILUPBiCGStab:  Solving for ILambda_104_0, Initial residual = 1.95270308754e-16, Final residual = 8.34287362418e-63, No Iterations 9
DILUPBiCGStab:  Solving for ILambda_105_0, Initial residual = 2.46089319588e-16, Final residual = 7.11058762221e-62, No Iterations 10
DILUPBiCGStab:  Solving for ILambda_106_0, Initial residual = 2.18591361671e-16, Final residual = 8.8196601002e-61, No Iterations 11
DILUPBiCGStab:  Solving for ILambda_107_0, Initial residual = 2.51310450838e-16, Final residual = 8.32812497006e-62, No Iterations 11
DILUPBiCGStab:  Solving for ILambda_108_0, Initial residual = 2.68018070839e-16, Final residual = 2.34928255148e-62, No Iterations 11
DILUPBiCGStab:  Solving for ILambda_109_0, Initial residual = 2.55487355838e-16, Final residual = 1.91023255898e-61, No Iterations 11
DILUPBiCGStab:  Solving for ILambda_110_0, Initial residual = 2.23464417504e-16, Final residual = 1.47144823402e-62, No Iterations 10
DILUPBiCGStab:  Solving for ILambda_111_0, Initial residual = 2.02579892504e-16, Final residual = 6.91215983657e-63, No Iterations 9
DILUPBiCGStab:  Solving for ILambda_112_0, Initial residual = 2.06060646671e-16, Final residual = 4.74917348329e-64, No Iterations 2
DILUPBiCGStab:  Solving for ILambda_113_0, Initial residual = 1.88656875837e-16, Final residual = 2.67376327872e-64, No Iterations 2
DILUPBiCGStab:  Solving for ILambda_114_0, Initial residual = 1.74385783753e-16, Final residual = 7.03743296041e-63, No Iterations 2
DILUPBiCGStab:  Solving for ILambda_115_0, Initial residual = 2.05364495837e-16, Final residual = 1.82425608888e-64, No Iterations 2
DILUPBiCGStab:  Solving for ILambda_116_0, Initial residual = 1.57678163753e-16, Final residual = 1.4233457313e-64, No Iterations 2
DILUPBiCGStab:  Solving for ILambda_117_0, Initial residual = 1.72993482087e-16, Final residual = 1.50564857759e-64, No Iterations 2
DILUPBiCGStab:  Solving for ILambda_118_0, Initial residual = 1.45147448753e-16, Final residual = 1.84596595294e-64, No Iterations 2
DILUPBiCGStab:  Solving for ILambda_119_0, Initial residual = 1.37837865003e-16, Final residual = 9.36961208836e-65, No Iterations 2
DILUPBiCGStab:  Solving for ILambda_120_0, Initial residual = 2.07452948337e-16, Final residual = 9.38188657919e-63, No Iterations 9
DILUPBiCGStab:  Solving for ILambda_121_0, Initial residual = 2.76023805422e-16, Final residual = 6.76726231475e-62, No Iterations 10
DILUPBiCGStab:  Solving for ILambda_122_0, Initial residual = 2.22072115838e-16, Final residual = 3.24311454005e-61, No Iterations 11
DILUPBiCGStab:  Solving for ILambda_123_0, Initial residual = 2.17199060004e-16, Final residual = 1.20802625644e-62, No Iterations 11
DILUPBiCGStab:  Solving for ILambda_124_0, Initial residual = 2.21027889588e-16, Final residual = 1.07225468536e-62, No Iterations 11
DILUPBiCGStab:  Solving for ILambda_125_0, Initial residual = 2.71150749589e-16, Final residual = 8.6210304313e-61, No Iterations 11
DILUPBiCGStab:  Solving for ILambda_126_0, Initial residual = 2.06756797504e-16, Final residual = 1.14314568456e-61, No Iterations 10
DILUPBiCGStab:  Solving for ILambda_127_0, Initial residual = 2.11977928754e-16, Final residual = 3.57673965363e-63, No Iterations 9
min/max(T) = 1000, 1000
PIMPLE: iteration 3
Radiation solver iter: 0
DILUPBiCGStab:  Solving for ILambda_0_0, Initial residual = 1.87612649587e-16, Final residual = 6.10880105774e-64, No Iterations 2
DILUPBiCGStab:  Solving for ILambda_1_0, Initial residual = 1.58374314586e-16, Final residual = 1.85426494761e-64, No Iterations 2
DILUPBiCGStab:  Solving for ILambda_2_0, Initial residual = 1.85524197087e-16, Final residual = 1.94069925618e-64, No Iterations 2
DILUPBiCGStab:  Solving for ILambda_3_0, Initial residual = 1.43755147086e-16, Final residual = 1.58290774526e-64, No Iterations 2
DILUPBiCGStab:  Solving for ILambda_4_0, Initial residual = 1.51412806253e-16, Final residual = 1.07386075181e-64, No Iterations 2
DILUPBiCGStab:  Solving for ILambda_5_0, Initial residual = 1.61855068753e-16, Final residual = 4.97117652552e-64, No Iterations 2
DILUPBiCGStab:  Solving for ILambda_6_0, Initial residual = 1.9457415792e-16, Final residual = 2.57878201492e-64, No Iterations 2
DILUPBiCGStab:  Solving for ILambda_7_0, Initial residual = 1.64987747503e-16, Final residual = 1.5393929373e-64, No Iterations 2
DILUPBiCGStab:  Solving for ILambda_8_0, Initial residual = 1.9457415792e-16, Final residual = 7.80325631073e-61, No Iterations 9
DILUPBiCGStab:  Solving for ILambda_9_0, Initial residual = 2.03624118754e-16, Final residual = 8.76793196492e-61, No Iterations 10
DILUPBiCGStab:  Solving for ILambda_10_0, Initial residual = 2.11977928754e-16, Final residual = 1.73016182434e-61, No Iterations 11
DILUPBiCGStab:  Solving for ILambda_11_0, Initial residual = 1.42710920836e-16, Final residual = 1.11612003635e-62, No Iterations 11
DILUPBiCGStab:  Solving for ILambda_12_0, Initial residual = 1.5698201292e-16, Final residual = 1.05260041329e-62, No Iterations 11
DILUPBiCGStab:  Solving for ILambda_13_0, Initial residual = 1.82739593754e-16, Final residual = 5.10836530796e-62, No Iterations 11
DILUPBiCGStab:  Solving for ILambda_14_0, Initial residual = 1.8204344292e-16, Final residual = 4.58374328751e-62, No Iterations 10
DILUPBiCGStab:  Solving for ILambda_15_0, Initial residual = 1.80651141254e-16, Final residual = 4.12773861613e-63, No Iterations 9
DILUPBiCGStab:  Solving for ILambda_16_0, Initial residual = 1.80303065837e-16, Final residual = 4.7740113918e-62, No Iterations 6
DILUPBiCGStab:  Solving for ILambda_17_0, Initial residual = 2.00839515421e-16, Final residual = 3.5857985198e-64, No Iterations 6
DILUPBiCGStab:  Solving for ILambda_18_0, Initial residual = 1.70905029587e-16, Final residual = 9.40953389038e-63, No Iterations 6
DILUPBiCGStab:  Solving for ILambda_19_0, Initial residual = 1.90049177504e-16, Final residual = 3.75764431407e-62, No Iterations 6
DILUPBiCGStab:  Solving for ILambda_20_0, Initial residual = 1.7160118042e-16, Final residual = 2.31755300907e-62, No Iterations 6
DILUPBiCGStab:  Solving for ILambda_21_0, Initial residual = 2.25552870004e-16, Final residual = 1.69837148528e-62, No Iterations 7
DILUPBiCGStab:  Solving for ILambda_22_0, Initial residual = 1.97358761254e-16, Final residual = 6.69021635508e-62, No Iterations 7
DILUPBiCGStab:  Solving for ILambda_23_0, Initial residual = 2.32862453755e-16, Final residual = 1.14831482378e-65, No Iterations 6
DILUPBiCGStab:  Solving for ILambda_24_0, Initial residual = 1.72993482087e-16, Final residual = 3.45527257361e-63, No Iterations 9
DILUPBiCGStab:  Solving for ILambda_25_0, Initial residual = 2.05016420421e-16, Final residual = 4.72938494866e-61, No Iterations 10
DILUPBiCGStab:  Solving for ILambda_26_0, Initial residual = 1.6638004917e-16, Final residual = 5.28657940818e-61, No Iterations 11
DILUPBiCGStab:  Solving for ILambda_27_0, Initial residual = 1.71253105003e-16, Final residual = 3.29642404803e-61, No Iterations 11
DILUPBiCGStab:  Solving for ILambda_28_0, Initial residual = 1.67076200003e-16, Final residual = 3.14117515627e-62, No Iterations 11
DILUPBiCGStab:  Solving for ILambda_29_0, Initial residual = 1.98751062921e-16, Final residual = 4.91722817879e-61, No Iterations 11
DILUPBiCGStab:  Solving for ILambda_30_0, Initial residual = 1.76474236253e-16, Final residual = 4.14231440884e-63, No Iterations 10
DILUPBiCGStab:  Solving for ILambda_31_0, Initial residual = 1.95270308754e-16, Final residual = 1.8015684823e-62, No Iterations 9
DILUPBiCGStab:  Solving for ILambda_32_0, Initial residual = 5.06797806677e-16, Final residual = 7.28336181093e-64, No Iterations 2
DILUPBiCGStab:  Solving for ILambda_33_0, Initial residual = 4.68509510842e-16, Final residual = 7.88600978396e-64, No Iterations 2
DILUPBiCGStab:  Solving for ILambda_34_0, Initial residual = 5.52047610844e-16, Final residual = 7.20338691714e-64, No Iterations 2
DILUPBiCGStab:  Solving for ILambda_35_0, Initial residual = 5.0540550501e-16, Final residual = 1.34139492729e-63, No Iterations 2
DILUPBiCGStab:  Solving for ILambda_36_0, Initial residual = 4.81040225843e-16, Final residual = 6.88851597316e-64, No Iterations 2
DILUPBiCGStab:  Solving for ILambda_37_0, Initial residual = 4.92178639176e-16, Final residual = 7.79942793074e-64, No Iterations 2
DILUPBiCGStab:  Solving for ILambda_38_0, Initial residual = 4.55978795842e-16, Final residual = 5.13496285999e-64, No Iterations 2
DILUPBiCGStab:  Solving for ILambda_39_0, Initial residual = 4.77559471676e-16, Final residual = 9.23941637401e-62, No Iterations 2
DILUPBiCGStab:  Solving for ILambda_40_0, Initial residual = 4.83128678343e-16, Final residual = 5.33627777553e-62, No Iterations 10
DILUPBiCGStab:  Solving for ILambda_41_0, Initial residual = 4.96355544176e-16, Final residual = 3.47142148023e-61, No Iterations 12
DILUPBiCGStab:  Solving for ILambda_42_0, Initial residual = 6.01474320012e-16, Final residual = 1.864270894e-62, No Iterations 14
DILUPBiCGStab:  Solving for ILambda_43_0, Initial residual = 4.85913281676e-16, Final residual = 3.87769335134e-61, No Iterations 14
DILUPBiCGStab:  Solving for ILambda_44_0, Initial residual = 5.27682331677e-16, Final residual = 1.68163385649e-64, No Iterations 15
DILUPBiCGStab:  Solving for ILambda_45_0, Initial residual = 4.9496324251e-16, Final residual = 2.29300701325e-62, No Iterations 14
DILUPBiCGStab:  Solving for ILambda_46_0, Initial residual = 5.45782253344e-16, Final residual = 6.04786947421e-61, No Iterations 12
DILUPBiCGStab:  Solving for ILambda_47_0, Initial residual = 5.15151616677e-16, Final residual = 2.01880870515e-61, No Iterations 11
DILUPBiCGStab:  Solving for ILambda_48_0, Initial residual = 5.54136063344e-16, Final residual = 1.47965371788e-62, No Iterations 7
DILUPBiCGStab:  Solving for ILambda_49_0, Initial residual = 5.36036141677e-16, Final residual = 1.08795666736e-64, No Iterations 6
DILUPBiCGStab:  Solving for ILambda_50_0, Initial residual = 5.71539834178e-16, Final residual = 2.17372047992e-62, No Iterations 6
DILUPBiCGStab:  Solving for ILambda_51_0, Initial residual = 4.99836298343e-16, Final residual = 1.37597126839e-63, No Iterations 6
DILUPBiCGStab:  Solving for ILambda_52_0, Initial residual = 5.65274476678e-16, Final residual = 1.92197996743e-62, No Iterations 6
DILUPBiCGStab:  Solving for ILambda_53_0, Initial residual = 4.57371097509e-16, Final residual = 1.64783754368e-63, No Iterations 6
DILUPBiCGStab:  Solving for ILambda_54_0, Initial residual = 5.29770784177e-16, Final residual = 1.74251567072e-63, No Iterations 7
DILUPBiCGStab:  Solving for ILambda_55_0, Initial residual = 4.24652008342e-16, Final residual = 4.72308979048e-64, No Iterations 6
DILUPBiCGStab:  Solving for ILambda_56_0, Initial residual = 4.35790421675e-16, Final residual = 2.66588670747e-62, No Iterations 11
DILUPBiCGStab:  Solving for ILambda_57_0, Initial residual = 5.33947689177e-16, Final residual = 7.99328771025e-62, No Iterations 13
DILUPBiCGStab:  Solving for ILambda_58_0, Initial residual = 6.11220431679e-16, Final residual = 9.52609305355e-62, No Iterations 14
DILUPBiCGStab:  Solving for ILambda_59_0, Initial residual = 5.22809275843e-16, Final residual = 7.01114003462e-62, No Iterations 14
DILUPBiCGStab:  Solving for ILambda_60_0, Initial residual = 5.87551303345e-16, Final residual = 2.82032926352e-62, No Iterations 14
DILUPBiCGStab:  Solving for ILambda_61_0, Initial residual = 4.68509510842e-16, Final residual = 9.42176875371e-62, No Iterations 13
DILUPBiCGStab:  Solving for ILambda_62_0, Initial residual = 4.69901812509e-16, Final residual = 7.38059416074e-62, No Iterations 13
DILUPBiCGStab:  Solving for ILambda_63_0, Initial residual = 4.89394035843e-16, Final residual = 3.29642356612e-62, No Iterations 10
DILUPBiCGStab:  Solving for ILambda_64_0, Initial residual = 5.29074633344e-16, Final residual = 2.03746999577e-63, No Iterations 6
DILUPBiCGStab:  Solving for ILambda_65_0, Initial residual = 5.06101655843e-16, Final residual = 3.57572684678e-61, No Iterations 6
DILUPBiCGStab:  Solving for ILambda_66_0, Initial residual = 5.86159001678e-16, Final residual = 9.57629627555e-61, No Iterations 6
[...]
DILUPBiCGStab:  Solving for ILambda_107_0, Initial residual = 1.92833780837e-16, Final residual = 2.72036302307e-62, No Iterations 11
DILUPBiCGStab:  Solving for ILambda_108_0, Initial residual = 1.80651141254e-16, Final residual = 3.95100937891e-62, No Iterations 11
DILUPBiCGStab:  Solving for ILambda_109_0, Initial residual = 1.84828046254e-16, Final residual = 5.51699523364e-62, No Iterations 11
DILUPBiCGStab:  Solving for ILambda_110_0, Initial residual = 1.27395602502e-16, Final residual = 4.13834176248e-62, No Iterations 10
DILUPBiCGStab:  Solving for ILambda_111_0, Initial residual = 1.34357110836e-16, Final residual = 6.06068215749e-63, No Iterations 9
DILUPBiCGStab:  Solving for ILambda_112_0, Initial residual = 1.50368580003e-16, Final residual = 2.89291493925e-63, No Iterations 2
DILUPBiCGStab:  Solving for ILambda_113_0, Initial residual = 1.78562688753e-16, Final residual = 1.72966811979e-64, No Iterations 2
DILUPBiCGStab:  Solving for ILambda_114_0, Initial residual = 1.8517612167e-16, Final residual = 3.24384580866e-64, No Iterations 2
DILUPBiCGStab:  Solving for ILambda_115_0, Initial residual = 1.92137630004e-16, Final residual = 3.42462004269e-64, No Iterations 2
DILUPBiCGStab:  Solving for ILambda_116_0, Initial residual = 1.48976278336e-16, Final residual = 2.63380394521e-64, No Iterations 2
DILUPBiCGStab:  Solving for ILambda_117_0, Initial residual = 1.66728124587e-16, Final residual = 1.29272359969e-64, No Iterations 2
DILUPBiCGStab:  Solving for ILambda_118_0, Initial residual = 1.28439828752e-16, Final residual = 1.43219667474e-64, No Iterations 2
DILUPBiCGStab:  Solving for ILambda_119_0, Initial residual = 1.00941870835e-16, Final residual = 6.3281120632e-65, No Iterations 2
DILUPBiCGStab:  Solving for ILambda_120_0, Initial residual = 1.29135979586e-16, Final residual = 6.16089197892e-62, No Iterations 9
DILUPBiCGStab:  Solving for ILambda_121_0, Initial residual = 1.89004951254e-16, Final residual = 9.6066162951e-63, No Iterations 10
DILUPBiCGStab:  Solving for ILambda_122_0, Initial residual = 1.67076200003e-16, Final residual = 2.59003521415e-61, No Iterations 11
DILUPBiCGStab:  Solving for ILambda_123_0, Initial residual = 1.45147448753e-16, Final residual = 1.15518028529e-62, No Iterations 11
DILUPBiCGStab:  Solving for ILambda_124_0, Initial residual = 1.58374314586e-16, Final residual = 2.24364129901e-62, No Iterations 11
DILUPBiCGStab:  Solving for ILambda_125_0, Initial residual = 1.9457415792e-16, Final residual = 6.88392857919e-61, No Iterations 11
DILUPBiCGStab:  Solving for ILambda_126_0, Initial residual = 1.26003300836e-16, Final residual = 6.59307050931e-62, No Iterations 10
DILUPBiCGStab:  Solving for ILambda_127_0, Initial residual = 1.39578242086e-16, Final residual = 3.62797244106e-61, No Iterations 9
min/max(T) = 1000, 1000
PIMPLE: iteration 10
Radiation solver iter: 0
DILUPBiCGStab:  Solving for ILambda_0_0, Initial residual = 1.82739593754e-16, Final residual = 1.5903494573e-64, No Iterations 2
DILUPBiCGStab:  Solving for ILambda_1_0, Initial residual = 1.5593778667e-16, Final residual = 2.19607025291e-64, No Iterations 2
DILUPBiCGStab:  Solving for ILambda_2_0, Initial residual = 1.84479970837e-16, Final residual = 3.82092788168e-64, No Iterations 2
DILUPBiCGStab:  Solving for ILambda_3_0, Initial residual = 1.4653975042e-16, Final residual = 2.57193422207e-64, No Iterations 2
DILUPBiCGStab:  Solving for ILambda_4_0, Initial residual = 1.48280127503e-16, Final residual = 1.23943759432e-64, No Iterations 2
DILUPBiCGStab:  Solving for ILambda_5_0, Initial residual = 1.5907046542e-16, Final residual = 1.88772578409e-64, No Iterations 2
DILUPBiCGStab:  Solving for ILambda_6_0, Initial residual = 1.9144147917e-16, Final residual = 1.98140706825e-64, No Iterations 2
DILUPBiCGStab:  Solving for ILambda_7_0, Initial residual = 1.5593778667e-16, Final residual = 3.08227973149e-64, No Iterations 2
DILUPBiCGStab:  Solving for ILambda_8_0, Initial residual = 1.7682231167e-16, Final residual = 4.12244024052e-63, No Iterations 9
DILUPBiCGStab:  Solving for ILambda_9_0, Initial residual = 1.8308766917e-16, Final residual = 5.66205551406e-63, No Iterations 10
DILUPBiCGStab:  Solving for ILambda_10_0, Initial residual = 2.04668345004e-16, Final residual = 4.30936606293e-62, No Iterations 11
DILUPBiCGStab:  Solving for ILambda_11_0, Initial residual = 1.30180205836e-16, Final residual = 3.92101339567e-62, No Iterations 11
DILUPBiCGStab:  Solving for ILambda_12_0, Initial residual = 1.4967242917e-16, Final residual = 3.11777082116e-61, No Iterations 11
DILUPBiCGStab:  Solving for ILambda_13_0, Initial residual = 1.6429159667e-16, Final residual = 3.12367473151e-61, No Iterations 11
DILUPBiCGStab:  Solving for ILambda_14_0, Initial residual = 1.4967242917e-16, Final residual = 2.43329617226e-62, No Iterations 10
DILUPBiCGStab:  Solving for ILambda_15_0, Initial residual = 1.66728124587e-16, Final residual = 2.79248513158e-63, No Iterations 9
DILUPBiCGStab:  Solving for ILambda_16_0, Initial residual = 1.62899295003e-16, Final residual = 2.29563754697e-63, No Iterations 6
DILUPBiCGStab:  Solving for ILambda_17_0, Initial residual = 1.92833780837e-16, Final residual = 5.08552156433e-61, No Iterations 6
DILUPBiCGStab:  Solving for ILambda_18_0, Initial residual = 1.5802623917e-16, Final residual = 1.51398387757e-62, No Iterations 6
DILUPBiCGStab:  Solving for ILambda_19_0, Initial residual = 1.50020504586e-16, Final residual = 1.6286577147e-61, No Iterations 6
DILUPBiCGStab:  Solving for ILambda_20_0, Initial residual = 1.47932052086e-16, Final residual = 9.84824872106e-61, No Iterations 6
DILUPBiCGStab:  Solving for ILambda_21_0, Initial residual = 2.03276043337e-16, Final residual = 2.21296730021e-64, No Iterations 6
DILUPBiCGStab:  Solving for ILambda_22_0, Initial residual = 1.54545485003e-16, Final residual = 9.25597457476e-63, No Iterations 6
DILUPBiCGStab:  Solving for ILambda_23_0, Initial residual = 1.85872272504e-16, Final residual = 2.25560867957e-62, No Iterations 6
DILUPBiCGStab:  Solving for ILambda_24_0, Initial residual = 1.52108957086e-16, Final residual = 7.11077786509e-61, No Iterations 9
DILUPBiCGStab:  Solving for ILambda_25_0, Initial residual = 1.9248570542e-16, Final residual = 6.3615385823e-61, No Iterations 10
DILUPBiCGStab:  Solving for ILambda_26_0, Initial residual = 1.38534015836e-16, Final residual = 1.67662344904e-61, No Iterations 11
DILUPBiCGStab:  Solving for ILambda_27_0, Initial residual = 1.6115891792e-16, Final residual = 2.70506544134e-62, No Iterations 11
DILUPBiCGStab:  Solving for ILambda_28_0, Initial residual = 1.48280127503e-16, Final residual = 2.98965438604e-62, No Iterations 11
DILUPBiCGStab:  Solving for ILambda_29_0, Initial residual = 1.9039725292e-16, Final residual = 8.93870279088e-62, No Iterations 11
DILUPBiCGStab:  Solving for ILambda_30_0, Initial residual = 1.57330088336e-16, Final residual = 8.22366158972e-63, No Iterations 10
DILUPBiCGStab:  Solving for ILambda_31_0, Initial residual = 1.8308766917e-16, Final residual = 3.03906800476e-63, No Iterations 9
DILUPBiCGStab:  Solving for ILambda_32_0, Initial residual = 5.00532449176e-16, Final residual = 6.95621386409e-64, No Iterations 2
DILUPBiCGStab:  Solving for ILambda_33_0, Initial residual = 4.61548002509e-16, Final residual = 7.51343799755e-64, No Iterations 2
DILUPBiCGStab:  Solving for ILambda_34_0, Initial residual = 5.63882175011e-16, Final residual = 6.94859109173e-64, No Iterations 2
DILUPBiCGStab:  Solving for ILambda_35_0, Initial residual = 5.06101655843e-16, Final residual = 7.05321783677e-64, No Iterations 2
DILUPBiCGStab:  Solving for ILambda_36_0, Initial residual = 5.0122860001e-16, Final residual = 8.56826099672e-64, No Iterations 2
DILUPBiCGStab:  Solving for ILambda_37_0, Initial residual = 5.02620901676e-16, Final residual = 5.99175378079e-64, No Iterations 2
DILUPBiCGStab:  Solving for ILambda_38_0, Initial residual = 4.55282645009e-16, Final residual = 6.11458155783e-64, No Iterations 2
DILUPBiCGStab:  Solving for ILambda_39_0, Initial residual = 4.78255622509e-16, Final residual = 4.7830521827e-64, No Iterations 2
DILUPBiCGStab:  Solving for ILambda_40_0, Initial residual = 4.86609432509e-16, Final residual = 1.45083814727e-62, No Iterations 10
DILUPBiCGStab:  Solving for ILambda_41_0, Initial residual = 4.52498041675e-16, Final residual = 3.71916874754e-61, No Iterations 12
DILUPBiCGStab:  Solving for ILambda_42_0, Initial residual = 6.21662694179e-16, Final residual = 9.47461749534e-61, No Iterations 13
DILUPBiCGStab:  Solving for ILambda_43_0, Initial residual = 4.85217130843e-16, Final residual = 4.86404951016e-61, No Iterations 14
DILUPBiCGStab:  Solving for ILambda_44_0, Initial residual = 5.24897728344e-16, Final residual = 2.13954184256e-61, No Iterations 14
DILUPBiCGStab:  Solving for ILambda_45_0, Initial residual = 5.04709354176e-16, Final residual = 4.47804729193e-61, No Iterations 13
DILUPBiCGStab:  Solving for ILambda_46_0, Initial residual = 5.1793622001e-16, Final residual = 6.23824561871e-62, No Iterations 13
DILUPBiCGStab:  Solving for ILambda_47_0, Initial residual = 4.72686415843e-16, Final residual = 9.52250185277e-63, No Iterations 11
DILUPBiCGStab:  Solving for ILambda_48_0, Initial residual = 5.13063164177e-16, Final residual = 1.31850781213e-62, No Iterations 6
DILUPBiCGStab:  Solving for ILambda_49_0, Initial residual = 4.94267091676e-16, Final residual = 6.35269247031e-62, No Iterations 6
DILUPBiCGStab:  Solving for ILambda_50_0, Initial residual = 5.88943605011e-16, Final residual = 1.79378405219e-63, No Iterations 7
DILUPBiCGStab:  Solving for ILambda_51_0, Initial residual = 4.93570940843e-16, Final residual = 1.28826206851e-61, No Iterations 6
DILUPBiCGStab:  Solving for ILambda_52_0, Initial residual = 5.66666778344e-16, Final residual = 5.13341555943e-63, No Iterations 6
DILUPBiCGStab:  Solving for ILambda_53_0, Initial residual = 4.55978795842e-16, Final residual = 9.26726963958e-63, No Iterations 6
DILUPBiCGStab:  Solving for ILambda_54_0, Initial residual = 5.14455465843e-16, Final residual = 3.80102959288e-61, No Iterations 6
DILUPBiCGStab:  Solving for ILambda_55_0, Initial residual = 4.03767483341e-16, Final residual = 4.14530429174e-61, No Iterations 6
DILUPBiCGStab:  Solving for ILambda_56_0, Initial residual = 4.47624985842e-16, Final residual = 3.46622928608e-61, No Iterations 11
DILUPBiCGStab:  Solving for ILambda_57_0, Initial residual = 5.15151616677e-16, Final residual = 6.01495387264e-62, No Iterations 13
DILUPBiCGStab:  Solving for ILambda_58_0, Initial residual = 5.88247454178e-16, Final residual = 3.92944240247e-62, No Iterations 14
DILUPBiCGStab:  Solving for ILambda_59_0, Initial residual = 5.12367013343e-16, Final residual = 3.41628701495e-61, No Iterations 14
DILUPBiCGStab:  Solving for ILambda_60_0, Initial residual = 5.45782253344e-16, Final residual = 2.07548063593e-62, No Iterations 14
DILUPBiCGStab:  Solving for ILambda_61_0, Initial residual = 4.55282645009e-16, Final residual = 1.37510901058e-61, No Iterations 13
DILUPBiCGStab:  Solving for ILambda_62_0, Initial residual = 4.81736376676e-16, Final residual = 3.38300628746e-61, No Iterations 12
DILUPBiCGStab:  Solving for ILambda_63_0, Initial residual = 4.32309667508e-16, Final residual = 3.08870494163e-62, No Iterations 10
DILUPBiCGStab:  Solving for ILambda_64_0, Initial residual = 5.0749395751e-16, Final residual = 1.0756434488e-62, No Iterations 6
DILUPBiCGStab:  Solving for ILambda_65_0, Initial residual = 5.0331705251e-16, Final residual = 1.43079196907e-61, No Iterations 6
DILUPBiCGStab:  Solving for ILambda_66_0, Initial residual = 5.73628286678e-16, Final residual = 9.08918908744e-61, No Iterations 6
DILUPBiCGStab:  Solving for ILambda_67_0, Initial residual = 5.40213046677e-16, Final residual = 1.24570593072e-61, No Iterations 6
DILUPBiCGStab:  Solving for ILambda_68_0, Initial residual = 5.44389951677e-16, Final residual = 2.3050194706e-61, No Iterations 6
DILUPBiCGStab:  Solving for ILambda_69_0, Initial residual = 5.1375931501e-16, Final residual = 6.01664620458e-61, No Iterations 6
DILUPBiCGStab:  Solving for ILambda_70_0, Initial residual = 4.46232684175e-16, Final residual = 9.25794676121e-63, No Iterations 6
DILUPBiCGStab:  Solving for ILambda_71_0, Initial residual = 5.15151616677e-16, Final residual = 7.46556500212e-64, No Iterations 6
DILUPBiCGStab:  Solving for ILambda_72_0, Initial residual = 4.85913281676e-16, Final residual = 3.57078411693e-62, No Iterations 11
DILUPBiCGStab:  Solving for ILambda_73_0, Initial residual = 4.88001734176e-16, Final residual = 2.85502244043e-61, No Iterations 13
DILUPBiCGStab:  Solving for ILambda_74_0, Initial residual = 5.89639755845e-16, Final residual = 1.56261290753e-62, No Iterations 14
DILUPBiCGStab:  Solving for ILambda_75_0, Initial residual = 5.13063164177e-16, Final residual = 5.85649835007e-62, No Iterations 14
DILUPBiCGStab:  Solving for ILambda_76_0, Initial residual = 5.46478404177e-16, Final residual = 4.57104323095e-61, No Iterations 14
DILUPBiCGStab:  Solving for ILambda_77_0, Initial residual = 5.0540550501e-16, Final residual = 2.94794013003e-61, No Iterations 13
DILUPBiCGStab:  Solving for ILambda_78_0, Initial residual = 5.4090919751e-16, Final residual = 4.12632763817e-61, No Iterations 12
DILUPBiCGStab:  Solving for ILambda_79_0, Initial residual = 4.74078717509e-16, Final residual = 4.51079171438e-62, No Iterations 10
DILUPBiCGStab:  Solving for ILambda_80_0, Initial residual = 5.33947689177e-16, Final residual = 1.5982265349e-63, No Iterations 2
DILUPBiCGStab:  Solving for ILambda_81_0, Initial residual = 5.13063164177e-16, Final residual = 6.98011862676e-64, No Iterations 2
DILUPBiCGStab:  Solving for ILambda_82_0, Initial residual = 5.93816660845e-16, Final residual = 8.56935869213e-64, No Iterations 2
DILUPBiCGStab:  Solving for ILambda_83_0, Initial residual = 5.16543918343e-16, Final residual = 8.24742858161e-64, No Iterations 2
DILUPBiCGStab:  Solving for ILambda_84_0, Initial residual = 5.77805191678e-16, Final residual = 9.06416747556e-64, No Iterations 2
DILUPBiCGStab:  Solving for ILambda_85_0, Initial residual = 4.86609432509e-16, Final residual = 7.23747956638e-64, No Iterations 2
DILUPBiCGStab:  Solving for ILambda_86_0, Initial residual = 5.61793722511e-16, Final residual = 7.4377880826e-64, No Iterations 2
DILUPBiCGStab:  Solving for ILambda_87_0, Initial residual = 4.28132762508e-16, Final residual = 6.33688286365e-64, No Iterations 2
DILUPBiCGStab:  Solving for ILambda_88_0, Initial residual = 4.16298198341e-16, Final residual = 1.38533197953e-61, No Iterations 10
DILUPBiCGStab:  Solving for ILambda_89_0, Initial residual = 5.36036141677e-16, Final residual = 1.21967259388e-62, No Iterations 13
DILUPBiCGStab:  Solving for ILambda_90_0, Initial residual = 6.16789638345e-16, Final residual = 8.79108476216e-62, No Iterations 14
DILUPBiCGStab:  Solving for ILambda_91_0, Initial residual = 5.1793622001e-16, Final residual = 2.22394246122e-61, No Iterations 14
DILUPBiCGStab:  Solving for ILambda_92_0, Initial residual = 5.38124594177e-16, Final residual = 2.49933581669e-61, No Iterations 14
DILUPBiCGStab:  Solving for ILambda_93_0, Initial residual = 4.71294114176e-16, Final residual = 2.77814713618e-61, No Iterations 13
DILUPBiCGStab:  Solving for ILambda_94_0, Initial residual = 4.88001734176e-16, Final residual = 3.8626926649e-61, No Iterations 12
DILUPBiCGStab:  Solving for ILambda_95_0, Initial residual = 4.37878874175e-16, Final residual = 3.10044643571e-62, No Iterations 11
DILUPBiCGStab:  Solving for ILambda_96_0, Initial residual = 1.4758397667e-16, Final residual = 8.23363640547e-61, No Iterations 6
DILUPBiCGStab:  Solving for ILambda_97_0, Initial residual = 1.8622034792e-16, Final residual = 9.72103773474e-61, No Iterations 6
DILUPBiCGStab:  Solving for ILambda_98_0, Initial residual = 1.6324737042e-16, Final residual = 8.80885285999e-62, No Iterations 6
DILUPBiCGStab:  Solving for ILambda_99_0, Initial residual = 1.89004951254e-16, Final residual = 4.69372041849e-64, No Iterations 6
DILUPBiCGStab:  Solving for ILambda_100_0, Initial residual = 1.93878007087e-16, Final residual = 8.56374964399e-61, No Iterations 6
DILUPBiCGStab:  Solving for ILambda_101_0, Initial residual = 1.7473385917e-16, Final residual = 8.7840808362e-62, No Iterations 6
DILUPBiCGStab:  Solving for ILambda_102_0, Initial residual = 1.7786653792e-16, Final residual = 3.16784489186e-64, No Iterations 6
DILUPBiCGStab:  Solving for ILambda_103_0, Initial residual = 1.24262923752e-16, Final residual = 8.13219216709e-64, No Iterations 6
DILUPBiCGStab:  Solving for ILambda_104_0, Initial residual = 1.46191675003e-16, Final residual = 3.80974338767e-63, No Iterations 9
DILUPBiCGStab:  Solving for ILambda_105_0, Initial residual = 1.68816577087e-16, Final residual = 7.36634212781e-62, No Iterations 10
DILUPBiCGStab:  Solving for ILambda_106_0, Initial residual = 1.61506993336e-16, Final residual = 1.40349565302e-61, No Iterations 11
DILUPBiCGStab:  Solving for ILambda_107_0, Initial residual = 1.94922233337e-16, Final residual = 2.95709131539e-62, No Iterations 11
DILUPBiCGStab:  Solving for ILambda_108_0, Initial residual = 1.8308766917e-16, Final residual = 1.91689385288e-62, No Iterations 11
DILUPBiCGStab:  Solving for ILambda_109_0, Initial residual = 1.84828046254e-16, Final residual = 4.32430971608e-62, No Iterations 11
DILUPBiCGStab:  Solving for ILambda_110_0, Initial residual = 1.25655225419e-16, Final residual = 1.27831838572e-62, No Iterations 10
DILUPBiCGStab:  Solving for ILambda_111_0, Initial residual = 1.37489789586e-16, Final residual = 6.05919279024e-63, No Iterations 9
DILUPBiCGStab:  Solving for ILambda_112_0, Initial residual = 1.49324353753e-16, Final residual = 1.13765977116e-64, No Iterations 2
DILUPBiCGStab:  Solving for ILambda_113_0, Initial residual = 1.81347292087e-16, Final residual = 2.52222025568e-64, No Iterations 2
DILUPBiCGStab:  Solving for ILambda_114_0, Initial residual = 1.84479970837e-16, Final residual = 2.10063065234e-64, No Iterations 2
DILUPBiCGStab:  Solving for ILambda_115_0, Initial residual = 1.91789554587e-16, Final residual = 1.09172578018e-64, No Iterations 2
DILUPBiCGStab:  Solving for ILambda_116_0, Initial residual = 1.4758397667e-16, Final residual = 1.21839364662e-64, No Iterations 2
DILUPBiCGStab:  Solving for ILambda_117_0, Initial residual = 1.68816577087e-16, Final residual = 1.68357900522e-64, No Iterations 2
DILUPBiCGStab:  Solving for ILambda_118_0, Initial residual = 1.30180205836e-16, Final residual = 1.31867449054e-64, No Iterations 2
DILUPBiCGStab:  Solving for ILambda_119_0, Initial residual = 1.01638021669e-16, Final residual = 7.73950753422e-65, No Iterations 2
DILUPBiCGStab:  Solving for ILambda_120_0, Initial residual = 1.27395602502e-16, Final residual = 6.97586363501e-63, No Iterations 9
DILUPBiCGStab:  Solving for ILambda_121_0, Initial residual = 1.96314535004e-16, Final residual = 3.39120849112e-62, No Iterations 10
DILUPBiCGStab:  Solving for ILambda_122_0, Initial residual = 1.6742427542e-16, Final residual = 1.56206512727e-61, No Iterations 11
DILUPBiCGStab:  Solving for ILambda_123_0, Initial residual = 1.46191675003e-16, Final residual = 1.20888086398e-62, No Iterations 11
DILUPBiCGStab:  Solving for ILambda_124_0, Initial residual = 1.56633937503e-16, Final residual = 2.74544351706e-62, No Iterations 11
DILUPBiCGStab:  Solving for ILambda_125_0, Initial residual = 1.93878007087e-16, Final residual = 3.85019087467e-61, No Iterations 11
DILUPBiCGStab:  Solving for ILambda_126_0, Initial residual = 1.25307150002e-16, Final residual = 7.28136704216e-62, No Iterations 10
DILUPBiCGStab:  Solving for ILambda_127_0, Initial residual = 1.34357110836e-16, Final residual = 3.11443978622e-61, No Iterations 9
min/max(T) = 1000, 1000
ExecutionTime = 0.86 s  ClockTime = 1 s

writeObjects writeObjects1.writeObjects write:
    writing object a
    writing object qem
End

