/*---------------------------------------------------------------------------*\
| =========                 |                                                 |
| \\      /  F ield         | OpenFOAM: The Open Source CFD Toolbox           |
|  \\    /   O peration     | Version:  2306                                  |
|   \\  /    A nd           | Website:  www.openfoam.com                      |
|    \\/     M anipulation  |                                                 |
\*---------------------------------------------------------------------------*/
Build  : _fbf00d6b-20230626 OPENFOAM=2306 version=2306
Arch   : "LSB;label=32;scalar=64"
Exec   : fireRADFoam_MaCFP
Date   : Mar 12 2024
Time   : 19:30:44
Host   : pop-os
PID    : 173182
I/O    : uncollated
Case   : /home/rafay/Desktop/Study/Radiative_Heat_Transfer/Local_copy_RHT2324/01_Projects/02_Rafay/Case_1_q1D_SolidAngle/new_case3/th_4-ph_8/tau_0.1/res_2
nProcs : 1
trapFpe: Floating point exception trapping enabled (FOAM_SIGFPE).
fileModificationChecking : Monitoring run-time modified files using timeStampMaster (fileModificationSkew 5, maxFileModificationPolls 20)
allowSystemOperations : Allowing user-supplied system call operations

// * * * * * * * * * * * * * * * * * * * * * * * * * * * * * * * * * * * * * //
Create time

Create mesh for time = 0


PIMPLE: no residual control data found. Calculations will employ 10 corrector loops

Reading thermophysical properties

Selecting thermodynamics package 
{
    type            hePsiThermo;
    mixture         singleStepReactingMixture;
    transport       sutherland;
    thermo          janaf;
    energy          sensibleEnthalpy;
    equationOfState perfectGas;
    specie          specie;
}

Selecting chemistryReader foamChemistryReader
    elements not defined in "/home/rafay/Desktop/Study/Radiative_Heat_Transfer/Local_copy_RHT2324/01_Projects/02_Rafay/Case_1_q1D_SolidAngle/new_case3/th_4-ph_8/tau_0.1/res_2/constant/reactions"
Fuel heat of combustion :47168962.4726
stoichiometric air-fuel ratio :14.6914056505
stoichiometric oxygen-fuel ratio :3.42181919285
Maximum products mass concentrations:
    H2O: 0.0818486943001
    CO2: 0.199950099979
    N2: 0.718201205721
Creating component thermo properties:
    multi-component carrier - 6 species
    no liquid components
    no solid components
Creating field rho


Reading field U

Reading/calculating face flux field phi

Selecting radiationModel fvDOM
Selecting absorptionEmissionModel constantAbsorptionEmission
Selecting scatterModel none
Selecting sootModel none
fvDOM : Allocated 128 rays with average orientation:
	I0 : dAve : 	(0.00274192284156 0.0278392098 0.0490873852123) : omega : 	0.0575094490319 : d : 	(0.0375095356919 0.38084070704 0.923879532511)
	I1 : dAve : 	(0.00812039796756 0.0267693645798 0.0490873852123) : omega : 	0.0575094490319 : d : 	(0.111087136655 0.366205212247 0.923879532511)
	I2 : dAve : 	(0.0131868107536 0.0246707876912 0.0490873852123) : omega : 	0.0575094490319 : d : 	(0.180395721254 0.337496656517 0.923879532511)
	I3 : dAve : 	(0.0177464617977 0.0216241262672 0.0490873852123) : omega : 	0.0575094490319 : d : 	(0.242771799453 0.295818293547 0.923879532511)
	I4 : dAve : 	(0.0216241262672 0.0177464617977 0.0490873852123) : omega : 	0.0575094490319 : d : 	(0.295818293547 0.242771799453 0.923879532511)
	I5 : dAve : 	(0.0246707876912 0.0131868107536 0.0490873852123) : omega : 	0.0575094490319 : d : 	(0.337496656517 0.180395721254 0.923879532511)
	I6 : dAve : 	(0.0267693645798 0.00812039796756 0.0490873852123) : omega : 	0.0575094490319 : d : 	(0.366205212247 0.111087136655 0.923879532511)
	I7 : dAve : 	(0.0278392098 0.00274192284156 0.0490873852123) : omega : 	0.0575094490319 : d : 	(0.38084070704 0.0375095356919 0.923879532511)
	I8 : dAve : 	(0.0278392098 -0.00274192284156 0.0490873852123) : omega : 	0.0575094490319 : d : 	(0.38084070704 -0.0375095356919 0.923879532511)
	I9 : dAve : 	(0.0267693645798 -0.00812039796756 0.0490873852123) : omega : 	0.0575094490319 : d : 	(0.366205212247 -0.111087136655 0.923879532511)
	I10 : dAve : 	(0.0246707876912 -0.0131868107536 0.0490873852123) : omega : 	0.0575094490319 : d : 	(0.337496656517 -0.180395721254 0.923879532511)
	I11 : dAve : 	(0.0216241262672 -0.0177464617977 0.0490873852123) : omega : 	0.0575094490319 : d : 	(0.295818293547 -0.242771799453 0.923879532511)
	I12 : dAve : 	(0.0177464617977 -0.0216241262672 0.0490873852123) : omega : 	0.0575094490319 : d : 	(0.242771799453 -0.295818293547 0.923879532511)
	I13 : dAve : 	(0.0131868107536 -0.0246707876912 0.0490873852123) : omega : 	0.0575094490319 : d : 	(0.180395721254 -0.337496656517 0.923879532511)
	I14 : dAve : 	(0.00812039796756 -0.0267693645798 0.0490873852123) : omega : 	0.0575094490319 : d : 	(0.111087136655 -0.366205212247 0.923879532511)
	I15 : dAve : 	(0.00274192284156 -0.0278392098 0.0490873852123) : omega : 	0.0575094490319 : d : 	(0.0375095356919 -0.38084070704 0.923879532511)
	I16 : dAve : 	(-0.00274192284156 -0.0278392098 0.0490873852123) : omega : 	0.0575094490319 : d : 	(-0.0375095356919 -0.38084070704 0.923879532511)
	I17 : dAve : 	(-0.00812039796756 -0.0267693645798 0.0490873852123) : omega : 	0.0575094490319 : d : 	(-0.111087136655 -0.366205212247 0.923879532511)
	I18 : dAve : 	(-0.0131868107536 -0.0246707876912 0.0490873852123) : omega : 	0.0575094490319 : d : 	(-0.180395721254 -0.337496656517 0.923879532511)
	I19 : dAve : 	(-0.0177464617977 -0.0216241262672 0.0490873852123) : omega : 	0.0575094490319 : d : 	(-0.242771799453 -0.295818293547 0.923879532511)
	I20 : dAve : 	(-0.0216241262672 -0.0177464617977 0.0490873852123) : omega : 	0.0575094490319 : d : 	(-0.295818293547 -0.242771799453 0.923879532511)
	I21 : dAve : 	(-0.0246707876912 -0.0131868107536 0.0490873852123) : omega : 	0.0575094490319 : d : 	(-0.337496656517 -0.180395721254 0.923879532511)
	I22 : dAve : 	(-0.0267693645798 -0.00812039796756 0.0490873852123) : omega : 	0.0575094490319 : d : 	(-0.366205212247 -0.111087136655 0.923879532511)
	I23 : dAve : 	(-0.0278392098 -0.00274192284156 0.0490873852123) : omega : 	0.0575094490319 : d : 	(-0.38084070704 -0.0375095356919 0.923879532511)
	I24 : dAve : 	(-0.0278392098 0.00274192284156 0.0490873852123) : omega : 	0.0575094490319 : d : 	(-0.38084070704 0.0375095356919 0.923879532511)
	I25 : dAve : 	(-0.0267693645798 0.00812039796756 0.0490873852123) : omega : 	0.0575094490319 : d : 	(-0.366205212247 0.111087136655 0.923879532511)
	I26 : dAve : 	(-0.0246707876912 0.0131868107536 0.0490873852123) : omega : 	0.0575094490319 : d : 	(-0.337496656517 0.180395721254 0.923879532511)
	I27 : dAve : 	(-0.0216241262672 0.0177464617977 0.0490873852123) : omega : 	0.0575094490319 : d : 	(-0.295818293547 0.242771799453 0.923879532511)
	I28 : dAve : 	(-0.0177464617977 0.0216241262672 0.0490873852123) : omega : 	0.0575094490319 : d : 	(-0.242771799453 0.295818293547 0.923879532511)
	I29 : dAve : 	(-0.0131868107536 0.0246707876912 0.0490873852123) : omega : 	0.0575094490319 : d : 	(-0.180395721254 0.337496656517 0.923879532511)
	I30 : dAve : 	(-0.00812039796756 0.0267693645798 0.0490873852123) : omega : 	0.0575094490319 : d : 	(-0.111087136655 0.366205212247 0.923879532511)
	I31 : dAve : 	(-0.00274192284156 0.0278392098 0.0490873852123) : omega : 	0.0575094490319 : d : 	(-0.0375095356919 0.38084070704 0.923879532511)
	I32 : dAve : 	(0.0123492826399 0.125384370808 0.0490873852123) : omega : 	0.138840091817 : d : 	(0.0905560297858 0.91943080004 0.382683432365)
	I33 : dAve : 	(0.0365732719135 0.120565919754 0.0490873852123) : omega : 	0.138840091817 : d : 	(0.268188071917 0.884097590017 0.382683432365)
	I34 : dAve : 	(0.059391770858 0.111114188018 0.0490873852123) : omega : 	0.138840091817 : d : 	(0.435513796846 0.814789005418 0.382683432365)
	I35 : dAve : 	(0.0799278773557 0.0973924003507 0.0490873852123) : omega : 	0.138840091817 : d : 	(0.586102970801 0.714168536279 0.382683432365)
	I36 : dAve : 	(0.0973924003507 0.0799278773557 0.0490873852123) : omega : 	0.138840091817 : d : 	(0.714168536279 0.586102970801 0.382683432365)
	I37 : dAve : 	(0.111114188018 0.059391770858 0.0490873852123) : omega : 	0.138840091817 : d : 	(0.814789005418 0.435513796846 0.382683432365)
	I38 : dAve : 	(0.120565919754 0.0365732719135 0.0490873852123) : omega : 	0.138840091817 : d : 	(0.884097590017 0.268188071917 0.382683432365)
	I39 : dAve : 	(0.125384370808 0.0123492826399 0.0490873852123) : omega : 	0.138840091817 : d : 	(0.91943080004 0.0905560297858 0.382683432365)
	I40 : dAve : 	(0.125384370808 -0.0123492826399 0.0490873852123) : omega : 	0.138840091817 : d : 	(0.91943080004 -0.0905560297858 0.382683432365)
	I41 : dAve : 	(0.120565919754 -0.0365732719135 0.0490873852123) : omega : 	0.138840091817 : d : 	(0.884097590017 -0.268188071917 0.382683432365)
	I42 : dAve : 	(0.111114188018 -0.059391770858 0.0490873852123) : omega : 	0.138840091817 : d : 	(0.814789005418 -0.435513796846 0.382683432365)
	I43 : dAve : 	(0.0973924003507 -0.0799278773557 0.0490873852123) : omega : 	0.138840091817 : d : 	(0.714168536279 -0.586102970801 0.382683432365)
	I44 : dAve : 	(0.0799278773557 -0.0973924003507 0.0490873852123) : omega : 	0.138840091817 : d : 	(0.586102970801 -0.714168536279 0.382683432365)
	I45 : dAve : 	(0.059391770858 -0.111114188018 0.0490873852123) : omega : 	0.138840091817 : d : 	(0.435513796846 -0.814789005418 0.382683432365)
	I46 : dAve : 	(0.0365732719135 -0.120565919754 0.0490873852123) : omega : 	0.138840091817 : d : 	(0.268188071917 -0.884097590017 0.382683432365)
	I47 : dAve : 	(0.0123492826399 -0.125384370808 0.0490873852123) : omega : 	0.138840091817 : d : 	(0.0905560297858 -0.91943080004 0.382683432365)
	I48 : dAve : 	(-0.0123492826399 -0.125384370808 0.0490873852123) : omega : 	0.138840091817 : d : 	(-0.0905560297858 -0.91943080004 0.382683432365)
	I49 : dAve : 	(-0.0365732719135 -0.120565919754 0.0490873852123) : omega : 	0.138840091817 : d : 	(-0.268188071917 -0.884097590017 0.382683432365)
	I50 : dAve : 	(-0.059391770858 -0.111114188018 0.0490873852123) : omega : 	0.138840091817 : d : 	(-0.435513796846 -0.814789005418 0.382683432365)
	I51 : dAve : 	(-0.0799278773557 -0.0973924003507 0.0490873852123) : omega : 	0.138840091817 : d : 	(-0.586102970801 -0.714168536279 0.382683432365)
	I52 : dAve : 	(-0.0973924003507 -0.0799278773557 0.0490873852123) : omega : 	0.138840091817 : d : 	(-0.714168536279 -0.586102970801 0.382683432365)
	I53 : dAve : 	(-0.111114188018 -0.059391770858 0.0490873852123) : omega : 	0.138840091817 : d : 	(-0.814789005418 -0.435513796846 0.382683432365)
	I54 : dAve : 	(-0.120565919754 -0.0365732719135 0.0490873852123) : omega : 	0.138840091817 : d : 	(-0.884097590017 -0.268188071917 0.382683432365)
	I55 : dAve : 	(-0.125384370808 -0.0123492826399 0.0490873852123) : omega : 	0.138840091817 : d : 	(-0.91943080004 -0.0905560297858 0.382683432365)
	I56 : dAve : 	(-0.125384370808 0.0123492826399 0.0490873852123) : omega : 	0.138840091817 : d : 	(-0.91943080004 0.0905560297858 0.382683432365)
	I57 : dAve : 	(-0.120565919754 0.0365732719135 0.0490873852123) : omega : 	0.138840091817 : d : 	(-0.884097590017 0.268188071917 0.382683432365)
	I58 : dAve : 	(-0.111114188018 0.059391770858 0.0490873852123) : omega : 	0.138840091817 : d : 	(-0.814789005418 0.435513796846 0.382683432365)
	I59 : dAve : 	(-0.0973924003507 0.0799278773557 0.0490873852123) : omega : 	0.138840091817 : d : 	(-0.714168536279 0.586102970801 0.382683432365)
	I60 : dAve : 	(-0.0799278773557 0.0973924003507 0.0490873852123) : omega : 	0.138840091817 : d : 	(-0.586102970801 0.714168536279 0.382683432365)
	I61 : dAve : 	(-0.059391770858 0.111114188018 0.0490873852123) : omega : 	0.138840091817 : d : 	(-0.435513796846 0.814789005418 0.382683432365)
	I62 : dAve : 	(-0.0365732719135 0.120565919754 0.0490873852123) : omega : 	0.138840091817 : d : 	(-0.268188071917 0.884097590017 0.382683432365)
	I63 : dAve : 	(-0.0123492826399 0.125384370808 0.0490873852123) : omega : 	0.138840091817 : d : 	(-0.0905560297858 0.91943080004 0.382683432365)
	I64 : dAve : 	(0.0123492826399 0.125384370808 -0.0490873852123) : omega : 	0.138840091817 : d : 	(0.0905560297858 0.91943080004 -0.382683432365)
	I65 : dAve : 	(0.0365732719135 0.120565919754 -0.0490873852123) : omega : 	0.138840091817 : d : 	(0.268188071917 0.884097590017 -0.382683432365)
	I66 : dAve : 	(0.059391770858 0.111114188018 -0.0490873852123) : omega : 	0.138840091817 : d : 	(0.435513796846 0.814789005418 -0.382683432365)
	I67 : dAve : 	(0.0799278773557 0.0973924003507 -0.0490873852123) : omega : 	0.138840091817 : d : 	(0.586102970801 0.714168536279 -0.382683432365)
	I68 : dAve : 	(0.0973924003507 0.0799278773557 -0.0490873852123) : omega : 	0.138840091817 : d : 	(0.714168536279 0.586102970801 -0.382683432365)
	I69 : dAve : 	(0.111114188018 0.059391770858 -0.0490873852123) : omega : 	0.138840091817 : d : 	(0.814789005418 0.435513796846 -0.382683432365)
	I70 : dAve : 	(0.120565919754 0.0365732719135 -0.0490873852123) : omega : 	0.138840091817 : d : 	(0.884097590017 0.268188071917 -0.382683432365)
	I71 : dAve : 	(0.125384370808 0.0123492826399 -0.0490873852123) : omega : 	0.138840091817 : d : 	(0.91943080004 0.0905560297858 -0.382683432365)
	I72 : dAve : 	(0.125384370808 -0.0123492826399 -0.0490873852123) : omega : 	0.138840091817 : d : 	(0.91943080004 -0.0905560297858 -0.382683432365)
	I73 : dAve : 	(0.120565919754 -0.0365732719135 -0.0490873852123) : omega : 	0.138840091817 : d : 	(0.884097590017 -0.268188071917 -0.382683432365)
	I74 : dAve : 	(0.111114188018 -0.059391770858 -0.0490873852123) : omega : 	0.138840091817 : d : 	(0.814789005418 -0.435513796846 -0.382683432365)
	I75 : dAve : 	(0.0973924003507 -0.0799278773557 -0.0490873852123) : omega : 	0.138840091817 : d : 	(0.714168536279 -0.586102970801 -0.382683432365)
	I76 : dAve : 	(0.0799278773557 -0.0973924003507 -0.0490873852123) : omega : 	0.138840091817 : d : 	(0.586102970801 -0.714168536279 -0.382683432365)
	I77 : dAve : 	(0.059391770858 -0.111114188018 -0.0490873852123) : omega : 	0.138840091817 : d : 	(0.435513796846 -0.814789005418 -0.382683432365)
	I78 : dAve : 	(0.0365732719135 -0.120565919754 -0.0490873852123) : omega : 	0.138840091817 : d : 	(0.268188071917 -0.884097590017 -0.382683432365)
	I79 : dAve : 	(0.0123492826399 -0.125384370808 -0.0490873852123) : omega : 	0.138840091817 : d : 	(0.0905560297858 -0.91943080004 -0.382683432365)
	I80 : dAve : 	(-0.0123492826399 -0.125384370808 -0.0490873852123) : omega : 	0.138840091817 : d : 	(-0.0905560297858 -0.91943080004 -0.382683432365)
	I81 : dAve : 	(-0.0365732719135 -0.120565919754 -0.0490873852123) : omega : 	0.138840091817 : d : 	(-0.268188071917 -0.884097590017 -0.382683432365)
	I82 : dAve : 	(-0.059391770858 -0.111114188018 -0.0490873852123) : omega : 	0.138840091817 : d : 	(-0.435513796846 -0.814789005418 -0.382683432365)
	I83 : dAve : 	(-0.0799278773557 -0.0973924003507 -0.0490873852123) : omega : 	0.138840091817 : d : 	(-0.586102970801 -0.714168536279 -0.382683432365)
	I84 : dAve : 	(-0.0973924003507 -0.0799278773557 -0.0490873852123) : omega : 	0.138840091817 : d : 	(-0.714168536279 -0.586102970801 -0.382683432365)
	I85 : dAve : 	(-0.111114188018 -0.059391770858 -0.0490873852123) : omega : 	0.138840091817 : d : 	(-0.814789005418 -0.435513796846 -0.382683432365)
	I86 : dAve : 	(-0.120565919754 -0.0365732719135 -0.0490873852123) : omega : 	0.138840091817 : d : 	(-0.884097590017 -0.268188071917 -0.382683432365)
	I87 : dAve : 	(-0.125384370808 -0.0123492826399 -0.0490873852123) : omega : 	0.138840091817 : d : 	(-0.91943080004 -0.0905560297858 -0.382683432365)
	I88 : dAve : 	(-0.125384370808 0.0123492826399 -0.0490873852123) : omega : 	0.138840091817 : d : 	(-0.91943080004 0.0905560297858 -0.382683432365)
	I89 : dAve : 	(-0.120565919754 0.0365732719135 -0.0490873852123) : omega : 	0.138840091817 : d : 	(-0.884097590017 0.268188071917 -0.382683432365)
	I90 : dAve : 	(-0.111114188018 0.059391770858 -0.0490873852123) : omega : 	0.138840091817 : d : 	(-0.814789005418 0.435513796846 -0.382683432365)
	I91 : dAve : 	(-0.0973924003507 0.0799278773557 -0.0490873852123) : omega : 	0.138840091817 : d : 	(-0.714168536279 0.586102970801 -0.382683432365)
	I92 : dAve : 	(-0.0799278773557 0.0973924003507 -0.0490873852123) : omega : 	0.138840091817 : d : 	(-0.586102970801 0.714168536279 -0.382683432365)
	I93 : dAve : 	(-0.059391770858 0.111114188018 -0.0490873852123) : omega : 	0.138840091817 : d : 	(-0.435513796846 0.814789005418 -0.382683432365)
	I94 : dAve : 	(-0.0365732719135 0.120565919754 -0.0490873852123) : omega : 	0.138840091817 : d : 	(-0.268188071917 0.884097590017 -0.382683432365)
	I95 : dAve : 	(-0.0123492826399 0.125384370808 -0.0490873852123) : omega : 	0.138840091817 : d : 	(-0.0905560297858 0.91943080004 -0.382683432365)
	I96 : dAve : 	(0.00274192284156 0.0278392098 -0.0490873852123) : omega : 	0.0575094490319 : d : 	(0.0375095356919 0.38084070704 -0.923879532511)
	I97 : dAve : 	(0.00812039796756 0.0267693645798 -0.0490873852123) : omega : 	0.0575094490319 : d : 	(0.111087136655 0.366205212247 -0.923879532511)
	I98 : dAve : 	(0.0131868107536 0.0246707876912 -0.0490873852123) : omega : 	0.0575094490319 : d : 	(0.180395721254 0.337496656517 -0.923879532511)
	I99 : dAve : 	(0.0177464617977 0.0216241262672 -0.0490873852123) : omega : 	0.0575094490319 : d : 	(0.242771799453 0.295818293547 -0.923879532511)
	I100 : dAve : 	(0.0216241262672 0.0177464617977 -0.0490873852123) : omega : 	0.0575094490319 : d : 	(0.295818293547 0.242771799453 -0.923879532511)
	I101 : dAve : 	(0.0246707876912 0.0131868107536 -0.0490873852123) : omega : 	0.0575094490319 : d : 	(0.337496656517 0.180395721254 -0.923879532511)
	I102 : dAve : 	(0.0267693645798 0.00812039796756 -0.0490873852123) : omega : 	0.0575094490319 : d : 	(0.366205212247 0.111087136655 -0.923879532511)
	I103 : dAve : 	(0.0278392098 0.00274192284156 -0.0490873852123) : omega : 	0.0575094490319 : d : 	(0.38084070704 0.0375095356919 -0.923879532511)
	I104 : dAve : 	(0.0278392098 -0.00274192284156 -0.0490873852123) : omega : 	0.0575094490319 : d : 	(0.38084070704 -0.0375095356919 -0.923879532511)
	I105 : dAve : 	(0.0267693645798 -0.00812039796756 -0.0490873852123) : omega : 	0.0575094490319 : d : 	(0.366205212247 -0.111087136655 -0.923879532511)
	I106 : dAve : 	(0.0246707876912 -0.0131868107536 -0.0490873852123) : omega : 	0.0575094490319 : d : 	(0.337496656517 -0.180395721254 -0.923879532511)
	I107 : dAve : 	(0.0216241262672 -0.0177464617977 -0.0490873852123) : omega : 	0.0575094490319 : d : 	(0.295818293547 -0.242771799453 -0.923879532511)
	I108 : dAve : 	(0.0177464617977 -0.0216241262672 -0.0490873852123) : omega : 	0.0575094490319 : d : 	(0.242771799453 -0.295818293547 -0.923879532511)
	I109 : dAve : 	(0.0131868107536 -0.0246707876912 -0.0490873852123) : omega : 	0.0575094490319 : d : 	(0.180395721254 -0.337496656517 -0.923879532511)
	I110 : dAve : 	(0.00812039796756 -0.0267693645798 -0.0490873852123) : omega : 	0.0575094490319 : d : 	(0.111087136655 -0.366205212247 -0.923879532511)
	I111 : dAve : 	(0.00274192284156 -0.0278392098 -0.0490873852123) : omega : 	0.0575094490319 : d : 	(0.0375095356919 -0.38084070704 -0.923879532511)
	I112 : dAve : 	(-0.00274192284156 -0.0278392098 -0.0490873852123) : omega : 	0.0575094490319 : d : 	(-0.0375095356919 -0.38084070704 -0.923879532511)
	I113 : dAve : 	(-0.00812039796756 -0.0267693645798 -0.0490873852123) : omega : 	0.0575094490319 : d : 	(-0.111087136655 -0.366205212247 -0.923879532511)
	I114 : dAve : 	(-0.0131868107536 -0.0246707876912 -0.0490873852123) : omega : 	0.0575094490319 : d : 	(-0.180395721254 -0.337496656517 -0.923879532511)
	I115 : dAve : 	(-0.0177464617977 -0.0216241262672 -0.0490873852123) : omega : 	0.0575094490319 : d : 	(-0.242771799453 -0.295818293547 -0.923879532511)
	I116 : dAve : 	(-0.0216241262672 -0.0177464617977 -0.0490873852123) : omega : 	0.0575094490319 : d : 	(-0.295818293547 -0.242771799453 -0.923879532511)
	I117 : dAve : 	(-0.0246707876912 -0.0131868107536 -0.0490873852123) : omega : 	0.0575094490319 : d : 	(-0.337496656517 -0.180395721254 -0.923879532511)
	I118 : dAve : 	(-0.0267693645798 -0.00812039796756 -0.0490873852123) : omega : 	0.0575094490319 : d : 	(-0.366205212247 -0.111087136655 -0.923879532511)
	I119 : dAve : 	(-0.0278392098 -0.00274192284156 -0.0490873852123) : omega : 	0.0575094490319 : d : 	(-0.38084070704 -0.0375095356919 -0.923879532511)
	I120 : dAve : 	(-0.0278392098 0.00274192284156 -0.0490873852123) : omega : 	0.0575094490319 : d : 	(-0.38084070704 0.0375095356919 -0.923879532511)
	I121 : dAve : 	(-0.0267693645798 0.00812039796756 -0.0490873852123) : omega : 	0.0575094490319 : d : 	(-0.366205212247 0.111087136655 -0.923879532511)
	I122 : dAve : 	(-0.0246707876912 0.0131868107536 -0.0490873852123) : omega : 	0.0575094490319 : d : 	(-0.337496656517 0.180395721254 -0.923879532511)
	I123 : dAve : 	(-0.0216241262672 0.0177464617977 -0.0490873852123) : omega : 	0.0575094490319 : d : 	(-0.295818293547 0.242771799453 -0.923879532511)
	I124 : dAve : 	(-0.0177464617977 0.0216241262672 -0.0490873852123) : omega : 	0.0575094490319 : d : 	(-0.242771799453 0.295818293547 -0.923879532511)
	I125 : dAve : 	(-0.0131868107536 0.0246707876912 -0.0490873852123) : omega : 	0.0575094490319 : d : 	(-0.180395721254 0.337496656517 -0.923879532511)
	I126 : dAve : 	(-0.00812039796756 0.0267693645798 -0.0490873852123) : omega : 	0.0575094490319 : d : 	(-0.111087136655 0.366205212247 -0.923879532511)
	I127 : dAve : 	(-0.00274192284156 0.0278392098 -0.0490873852123) : omega : 	0.0575094490319 : d : 	(-0.0375095356919 0.38084070704 -0.923879532511)
Total omega : 12.5663706144

Courant Number mean: 0 max: 0

Starting time loop

Sampled set:
    data -> csv

Sampled set:
    data -> csv

Sampled surface:
    yNormal -> ensight
        sampledCuttingPlane: yNormal : plane:(0 1 0) (0 0 0) offsets:(0)

Sampled surface:
    zNormal -> ensight
        sampledCuttingPlane: zNormal : plane:(0 0 1) (0 0 0) offsets:(0)

Sampled surface:
    patchAll -> ensight
        sampledPatch: patchAll : patches:(".*WW.*")

deltaT = 1
Time = 1

PIMPLE: iteration 1
Radiation solver iter: 0
DILUPBiCGStab:  Solving for ILambda_0_0, Initial residual = 1, Final residual = 1.80659204175e-61, No Iterations 2
DILUPBiCGStab:  Solving for ILambda_1_0, Initial residual = 1, Final residual = 6.95339855529e-61, No Iterations 2
DILUPBiCGStab:  Solving for ILambda_2_0, Initial residual = 1, Final residual = 7.31339381066e-76, No Iterations 3
DILUPBiCGStab:  Solving for ILambda_3_0, Initial residual = 1, Final residual = 8.33071489835e-61, No Iterations 2
DILUPBiCGStab:  Solving for ILambda_4_0, Initial residual = 1, Final residual = 6.21305964513e-61, No Iterations 2
DILUPBiCGStab:  Solving for ILambda_5_0, Initial residual = 1, Final residual = 1.97813468343e-75, No Iterations 3
DILUPBiCGStab:  Solving for ILambda_6_0, Initial residual = 1, Final residual = 3.32751795217e-61, No Iterations 2
DILUPBiCGStab:  Solving for ILambda_7_0, Initial residual = 1, Final residual = 9.25366610551e-61, No Iterations 2
DILUPBiCGStab:  Solving for ILambda_8_0, Initial residual = 1, Final residual = 7.61148273902e-61, No Iterations 37
DILUPBiCGStab:  Solving for ILambda_9_0, Initial residual = 1, Final residual = 2.83522281102e-61, No Iterations 52
DILUPBiCGStab:  Solving for ILambda_10_0, Initial residual = 1, Final residual = 8.44033357833e-62, No Iterations 59
DILUPBiCGStab:  Solving for ILambda_11_0, Initial residual = 1, Final residual = 4.68469495137e-61, No Iterations 58
DILUPBiCGStab:  Solving for ILambda_12_0, Initial residual = 1, Final residual = 2.93946312886e-61, No Iterations 58
DILUPBiCGStab:  Solving for ILambda_13_0, Initial residual = 1, Final residual = 3.71273871432e-61, No Iterations 58
DILUPBiCGStab:  Solving for ILambda_14_0, Initial residual = 1, Final residual = 4.42874205763e-61, No Iterations 51
DILUPBiCGStab:  Solving for ILambda_15_0, Initial residual = 1, Final residual = 8.59258636687e-61, No Iterations 36
DILUPBiCGStab:  Solving for ILambda_16_0, Initial residual = 1, Final residual = 3.1299690133e-61, No Iterations 25
DILUPBiCGStab:  Solving for ILambda_17_0, Initial residual = 1, Final residual = 1.80819819138e-61, No Iterations 23
DILUPBiCGStab:  Solving for ILambda_18_0, Initial residual = 1, Final residual = 2.99807545185e-61, No Iterations 23
DILUPBiCGStab:  Solving for ILambda_19_0, Initial residual = 1, Final residual = 4.76697533408e-61, No Iterations 23
DILUPBiCGStab:  Solving for ILambda_20_0, Initial residual = 1, Final residual = 4.73871905814e-62, No Iterations 22
DILUPBiCGStab:  Solving for ILambda_21_0, Initial residual = 1, Final residual = 6.35879387223e-62, No Iterations 24
DILUPBiCGStab:  Solving for ILambda_22_0, Initial residual = 1, Final residual = 8.50498247698e-62, No Iterations 23
DILUPBiCGStab:  Solving for ILambda_23_0, Initial residual = 1, Final residual = 2.55979787836e-61, No Iterations 23
DILUPBiCGStab:  Solving for ILambda_24_0, Initial residual = 1, Final residual = 3.32629491984e-61, No Iterations 36
DILUPBiCGStab:  Solving for ILambda_25_0, Initial residual = 1, Final residual = 4.16799040141e-61, No Iterations 50
DILUPBiCGStab:  Solving for ILambda_26_0, Initial residual = 1, Final residual = 2.31866429994e-62, No Iterations 61
DILUPBiCGStab:  Solving for ILambda_27_0, Initial residual = 1, Final residual = 2.53407510287e-61, No Iterations 60
DILUPBiCGStab:  Solving for ILambda_28_0, Initial residual = 1, Final residual = 3.93573254416e-61, No Iterations 58
DILUPBiCGStab:  Solving for ILambda_29_0, Initial residual = 1, Final residual = 1.60512702962e-61, No Iterations 60
DILUPBiCGStab:  Solving for ILambda_30_0, Initial residual = 1, Final residual = 4.01377906908e-61, No Iterations 52
DILUPBiCGStab:  Solving for ILambda_31_0, Initial residual = 1, Final residual = 5.87267975337e-61, No Iterations 38
DILUPBiCGStab:  Solving for ILambda_32_0, Initial residual = 1, Final residual = 3.52441582002e-75, No Iterations 3
DILUPBiCGStab:  Solving for ILambda_33_0, Initial residual = 1, Final residual = 9.67866348317e-75, No Iterations 3
DILUPBiCGStab:  Solving for ILambda_34_0, Initial residual = 1, Final residual = 1.8240616381e-75, No Iterations 3
DILUPBiCGStab:  Solving for ILambda_35_0, Initial residual = 1, Final residual = 2.60046664099e-75, No Iterations 3
DILUPBiCGStab:  Solving for ILambda_36_0, Initial residual = 1, Final residual = 9.22703469003e-74, No Iterations 3
DILUPBiCGStab:  Solving for ILambda_37_0, Initial residual = 1, Final residual = 9.72979508798e-75, No Iterations 3
DILUPBiCGStab:  Solving for ILambda_38_0, Initial residual = 1, Final residual = 2.17755398365e-74, No Iterations 3
DILUPBiCGStab:  Solving for ILambda_39_0, Initial residual = 1, Final residual = 1.56748357376e-75, No Iterations 3
DILUPBiCGStab:  Solving for ILambda_40_0, Initial residual = 1, Final residual = 2.21141230085e-61, No Iterations 39
DILUPBiCGStab:  Solving for ILambda_41_0, Initial residual = 1, Final residual = 1.3738914129e-61, No Iterations 53
DILUPBiCGStab:  Solving for ILambda_42_0, Initial residual = 1, Final residual = 5.54811854581e-61, No Iterations 62
DILUPBiCGStab:  Solving for ILambda_43_0, Initial residual = 1, Final residual = 2.79653621979e-61, No Iterations 63
DILUPBiCGStab:  Solving for ILambda_44_0, Initial residual = 1, Final residual = 1.62348553011e-61, No Iterations 64
DILUPBiCGStab:  Solving for ILambda_45_0, Initial residual = 1, Final residual = 8.15131801795e-61, No Iterations 60
DILUPBiCGStab:  Solving for ILambda_46_0, Initial residual = 1, Final residual = 2.31647863912e-61, No Iterations 51
DILUPBiCGStab:  Solving for ILambda_47_0, Initial residual = 1, Final residual = 3.5054475826e-61, No Iterations 37
DILUPBiCGStab:  Solving for ILambda_48_0, Initial residual = 1, Final residual = 5.24303885686e-61, No Iterations 31
DILUPBiCGStab:  Solving for ILambda_49_0, Initial residual = 1, Final residual = 2.82638642068e-61, No Iterations 32
DILUPBiCGStab:  Solving for ILambda_50_0, Initial residual = 1, Final residual = 4.05728343502e-61, No Iterations 27
DILUPBiCGStab:  Solving for ILambda_51_0, Initial residual = 1, Final residual = 9.57244305906e-63, No Iterations 32
DILUPBiCGStab:  Solving for ILambda_52_0, Initial residual = 1, Final residual = 9.45459433896e-61, No Iterations 30
DILUPBiCGStab:  Solving for ILambda_53_0, Initial residual = 1, Final residual = 5.22664692687e-61, No Iterations 31
DILUPBiCGStab:  Solving for ILambda_54_0, Initial residual = 1, Final residual = 5.16050178299e-61, No Iterations 28
DILUPBiCGStab:  Solving for ILambda_55_0, Initial residual = 1, Final residual = 7.89333370931e-61, No Iterations 29
DILUPBiCGStab:  Solving for ILambda_56_0, Initial residual = 1, Final residual = 5.36243209872e-61, No Iterations 37
DILUPBiCGStab:  Solving for ILambda_57_0, Initial residual = 1, Final residual = 3.58393751358e-61, No Iterations 51
DILUPBiCGStab:  Solving for ILambda_58_0, Initial residual = 1, Final residual = 6.68994200127e-61, No Iterations 60
DILUPBiCGStab:  Solving for ILambda_59_0, Initial residual = 1, Final residual = 8.43747077713e-61, No Iterations 63
DILUPBiCGStab:  Solving for ILambda_60_0, Initial residual = 1, Final residual = 5.75544595558e-61, No Iterations 63
DILUPBiCGStab:  Solving for ILambda_61_0, Initial residual = 1, Final residual = 5.02978223451e-61, No Iterations 62
DILUPBiCGStab:  Solving for ILambda_62_0, Initial residual = 1, Final residual = 7.60849718017e-61, No Iterations 53
DILUPBiCGStab:  Solving for ILambda_63_0, Initial residual = 1, Final residual = 9.78318070495e-61, No Iterations 38
DILUPBiCGStab:  Solving for ILambda_64_0, Initial residual = 1, Final residual = 7.34568062693e-61, No Iterations 29
DILUPBiCGStab:  Solving for ILambda_65_0, Initial residual = 1, Final residual = 7.23253747258e-63, No Iterations 35
DILUPBiCGStab:  Solving for ILambda_66_0, Initial residual = 1, Final residual = 2.93589203437e-61, No Iterations 31
DILUPBiCGStab:  Solving for ILambda_67_0, Initial residual = 1, Final residual = 2.38937197148e-61, No Iterations 30
DILUPBiCGStab:  Solving for ILambda_68_0, Initial residual = 1, Final residual = 4.58749601996e-62, No Iterations 34
DILUPBiCGStab:  Solving for ILambda_69_0, Initial residual = 1, Final residual = 1.60449952148e-61, No Iterations 31
DILUPBiCGStab:  Solving for ILambda_70_0, Initial residual = 1, Final residual = 9.64669879963e-62, No Iterations 34
DILUPBiCGStab:  Solving for ILambda_71_0, Initial residual = 1, Final residual = 2.93132955847e-63, No Iterations 30
DILUPBiCGStab:  Solving for ILambda_72_0, Initial residual = 1, Final residual = 4.09131434964e-61, No Iterations 38
DILUPBiCGStab:  Solving for ILambda_73_0, Initial residual = 1, Final residual = 4.93416357235e-61, No Iterations 53
DILUPBiCGStab:  Solving for ILambda_74_0, Initial residual = 1, Final residual = 2.99610910808e-62, No Iterations 62
DILUPBiCGStab:  Solving for ILambda_75_0, Initial residual = 1, Final residual = 4.16472387457e-61, No Iterations 63
DILUPBiCGStab:  Solving for ILambda_76_0, Initial residual = 1, Final residual = 9.00666705938e-61, No Iterations 63
DILUPBiCGStab:  Solving for ILambda_77_0, Initial residual = 1, Final residual = 5.65775785144e-61, No Iterations 63
DILUPBiCGStab:  Solving for ILambda_78_0, Initial residual = 1, Final residual = 4.56503790241e-61, No Iterations 54
DILUPBiCGStab:  Solving for ILambda_79_0, Initial residual = 1, Final residual = 6.87832004566e-61, No Iterations 39
DILUPBiCGStab:  Solving for ILambda_80_0, Initial residual = 1, Final residual = 1.52759054533e-74, No Iterations 3
DILUPBiCGStab:  Solving for ILambda_81_0, Initial residual = 1, Final residual = 9.04905163682e-74, No Iterations 3
DILUPBiCGStab:  Solving for ILambda_82_0, Initial residual = 1, Final residual = 4.09242064135e-74, No Iterations 3
DILUPBiCGStab:  Solving for ILambda_83_0, Initial residual = 1, Final residual = 1.00353274607e-73, No Iterations 3
DILUPBiCGStab:  Solving for ILambda_84_0, Initial residual = 1, Final residual = 7.11008397092e-74, No Iterations 3
DILUPBiCGStab:  Solving for ILambda_85_0, Initial residual = 1, Final residual = 2.36762536535e-74, No Iterations 3
DILUPBiCGStab:  Solving for ILambda_86_0, Initial residual = 1, Final residual = 8.93819567862e-74, No Iterations 3
DILUPBiCGStab:  Solving for ILambda_87_0, Initial residual = 1, Final residual = 1.72867820935e-74, No Iterations 3
DILUPBiCGStab:  Solving for ILambda_88_0, Initial residual = 1, Final residual = 4.52928601784e-61, No Iterations 39
DILUPBiCGStab:  Solving for ILambda_89_0, Initial residual = 1, Final residual = 1.27674793643e-61, No Iterations 55
DILUPBiCGStab:  Solving for ILambda_90_0, Initial residual = 1, Final residual = 9.50013313012e-61, No Iterations 63
DILUPBiCGStab:  Solving for ILambda_91_0, Initial residual = 1, Final residual = 2.44412261724e-61, No Iterations 64
DILUPBiCGStab:  Solving for ILambda_92_0, Initial residual = 1, Final residual = 7.08487240562e-61, No Iterations 63
DILUPBiCGStab:  Solving for ILambda_93_0, Initial residual = 1, Final residual = 2.56124292652e-61, No Iterations 61
DILUPBiCGStab:  Solving for ILambda_94_0, Initial residual = 1, Final residual = 7.42795246327e-61, No Iterations 53
DILUPBiCGStab:  Solving for ILambda_95_0, Initial residual = 1, Final residual = 5.01789346456e-61, No Iterations 38
DILUPBiCGStab:  Solving for ILambda_96_0, Initial residual = 1, Final residual = 5.13522744958e-62, No Iterations 28
DILUPBiCGStab:  Solving for ILambda_97_0, Initial residual = 1, Final residual = 1.52618698456e-61, No Iterations 27
DILUPBiCGStab:  Solving for ILambda_98_0, Initial residual = 1, Final residual = 7.41336701847e-61, No Iterations 28
DILUPBiCGStab:  Solving for ILambda_99_0, Initial residual = 1, Final residual = 1.46413414672e-61, No Iterations 31
DILUPBiCGStab:  Solving for ILambda_100_0, Initial residual = 1, Final residual = 7.10432163458e-61, No Iterations 30
DILUPBiCGStab:  Solving for ILambda_101_0, Initial residual = 1, Final residual = 1.86692444247e-61, No Iterations 25
DILUPBiCGStab:  Solving for ILambda_102_0, Initial residual = 1, Final residual = 9.50378689446e-62, No Iterations 28
DILUPBiCGStab:  Solving for ILambda_103_0, Initial residual = 1, Final residual = 8.19964277014e-63, No Iterations 28
DILUPBiCGStab:  Solving for ILambda_104_0, Initial residual = 1, Final residual = 8.47396913616e-62, No Iterations 36
DILUPBiCGStab:  Solving for ILambda_105_0, Initial residual = 1, Final residual = 1.58069836164e-61, No Iterations 52
DILUPBiCGStab:  Solving for ILambda_106_0, Initial residual = 1, Final residual = 2.04389128129e-61, No Iterations 59
DILUPBiCGStab:  Solving for ILambda_107_0, Initial residual = 1, Final residual = 8.54884621529e-61, No Iterations 60
DILUPBiCGStab:  Solving for ILambda_108_0, Initial residual = 1, Final residual = 1.43060190253e-61, No Iterations 59
DILUPBiCGStab:  Solving for ILambda_109_0, Initial residual = 1, Final residual = 2.24360181732e-61, No Iterations 60
DILUPBiCGStab:  Solving for ILambda_110_0, Initial residual = 1, Final residual = 3.61848296223e-61, No Iterations 53
DILUPBiCGStab:  Solving for ILambda_111_0, Initial residual = 1, Final residual = 2.49063783623e-61, No Iterations 37
DILUPBiCGStab:  Solving for ILambda_112_0, Initial residual = 1, Final residual = 1.24376080016e-75, No Iterations 3
DILUPBiCGStab:  Solving for ILambda_113_0, Initial residual = 1, Final residual = 1.51615799288e-74, No Iterations 3
DILUPBiCGStab:  Solving for ILambda_114_0, Initial residual = 1, Final residual = 6.10221846004e-75, No Iterations 3
DILUPBiCGStab:  Solving for ILambda_115_0, Initial residual = 1, Final residual = 3.91738282619e-75, No Iterations 3
DILUPBiCGStab:  Solving for ILambda_116_0, Initial residual = 1, Final residual = 6.23296615551e-72, No Iterations 3
DILUPBiCGStab:  Solving for ILambda_117_0, Initial residual = 1, Final residual = 6.20994728529e-73, No Iterations 3
DILUPBiCGStab:  Solving for ILambda_118_0, Initial residual = 1, Final residual = 1.13217125383e-74, No Iterations 3
DILUPBiCGStab:  Solving for ILambda_119_0, Initial residual = 1, Final residual = 3.39227268547e-75, No Iterations 3
DILUPBiCGStab:  Solving for ILambda_120_0, Initial residual = 1, Final residual = 8.35998543795e-61, No Iterations 37
DILUPBiCGStab:  Solving for ILambda_121_0, Initial residual = 1, Final residual = 9.43492190083e-61, No Iterations 53
DILUPBiCGStab:  Solving for ILambda_122_0, Initial residual = 1, Final residual = 8.90768005681e-61, No Iterations 60
DILUPBiCGStab:  Solving for ILambda_123_0, Initial residual = 1, Final residual = 2.22430272152e-61, No Iterations 60
DILUPBiCGStab:  Solving for ILambda_124_0, Initial residual = 1, Final residual = 7.16057651932e-61, No Iterations 61
DILUPBiCGStab:  Solving for ILambda_125_0, Initial residual = 1, Final residual = 6.92948022735e-61, No Iterations 59
DILUPBiCGStab:  Solving for ILambda_126_0, Initial residual = 1, Final residual = 2.38298114421e-61, No Iterations 52
DILUPBiCGStab:  Solving for ILambda_127_0, Initial residual = 1, Final residual = 6.88414822173e-61, No Iterations 36
Radiation solver iter: 1
DILUPBiCGStab:  Solving for ILambda_0_0, Initial residual = 9.14153458083e-17, Final residual = 2.7928398248e-63, No Iterations 2
DILUPBiCGStab:  Solving for ILambda_1_0, Initial residual = 9.61473359211e-17, Final residual = 5.56944607061e-63, No Iterations 2
DILUPBiCGStab:  Solving for ILambda_2_0, Initial residual = 9.24735086717e-17, Final residual = 2.9267332007e-63, No Iterations 2
DILUPBiCGStab:  Solving for ILambda_3_0, Initial residual = 1.03738711195e-16, Final residual = 5.33363684363e-63, No Iterations 2
DILUPBiCGStab:  Solving for ILambda_4_0, Initial residual = 1.03830488893e-16, Final residual = 5.98591815011e-63, No Iterations 2
DILUPBiCGStab:  Solving for ILambda_5_0, Initial residual = 1.04365858796e-16, Final residual = 4.61295451526e-63, No Iterations 2
DILUPBiCGStab:  Solving for ILambda_6_0, Initial residual = 1.00885444547e-16, Final residual = 3.10006740543e-63, No Iterations 2
DILUPBiCGStab:  Solving for ILambda_7_0, Initial residual = 9.54178731826e-17, Final residual = 7.61286079117e-61, No Iterations 2
DILUPBiCGStab:  Solving for ILambda_8_0, Initial residual = 5.7738539369e-16, Final residual = 4.59062252299e-61, No Iterations 27
DILUPBiCGStab:  Solving for ILambda_9_0, Initial residual = 5.24603359876e-16, Final residual = 7.07843400014e-61, No Iterations 36
DILUPBiCGStab:  Solving for ILambda_10_0, Initial residual = 5.35240055129e-16, Final residual = 4.5882528707e-61, No Iterations 39
DILUPBiCGStab:  Solving for ILambda_11_0, Initial residual = 4.29287801831e-16, Final residual = 6.46056797121e-61, No Iterations 44
DILUPBiCGStab:  Solving for ILambda_12_0, Initial residual = 4.25607856068e-16, Final residual = 7.17769012289e-62, No Iterations 45
DILUPBiCGStab:  Solving for ILambda_13_0, Initial residual = 5.85279295449e-16, Final residual = 2.94470419164e-61, No Iterations 41
DILUPBiCGStab:  Solving for ILambda_14_0, Initial residual = 3.1574655268e-16, Final residual = 4.96177889224e-61, No Iterations 38
DILUPBiCGStab:  Solving for ILambda_15_0, Initial residual = 3.05346439938e-16, Final residual = 7.67971385697e-61, No Iterations 26
DILUPBiCGStab:  Solving for ILambda_16_0, Initial residual = 1.94655738096e-16, Final residual = 6.97062584548e-63, No Iterations 13
DILUPBiCGStab:  Solving for ILambda_17_0, Initial residual = 2.13360712734e-16, Final residual = 5.31559529976e-61, No Iterations 14
DILUPBiCGStab:  Solving for ILambda_18_0, Initial residual = 2.20296727262e-16, Final residual = 4.48237700937e-62, No Iterations 14
DILUPBiCGStab:  Solving for ILambda_19_0, Initial residual = 2.19122312648e-16, Final residual = 3.20696874176e-62, No Iterations 13
DILUPBiCGStab:  Solving for ILambda_20_0, Initial residual = 2.1819807724e-16, Final residual = 1.52210806341e-61, No Iterations 15
DILUPBiCGStab:  Solving for ILambda_21_0, Initial residual = 2.1059446494e-16, Final residual = 3.53090302784e-62, No Iterations 12
DILUPBiCGStab:  Solving for ILambda_22_0, Initial residual = 2.00454389007e-16, Final residual = 8.27754064491e-61, No Iterations 14
DILUPBiCGStab:  Solving for ILambda_23_0, Initial residual = 1.84115579385e-16, Final residual = 9.24577014651e-61, No Iterations 13
DILUPBiCGStab:  Solving for ILambda_24_0, Initial residual = 3.14875684304e-16, Final residual = 7.10922939127e-61, No Iterations 28
DILUPBiCGStab:  Solving for ILambda_25_0, Initial residual = 3.01497555228e-16, Final residual = 4.97421630136e-61, No Iterations 36
DILUPBiCGStab:  Solving for ILambda_26_0, Initial residual = 5.81942326342e-16, Final residual = 1.9011676441e-61, No Iterations 42
DILUPBiCGStab:  Solving for ILambda_27_0, Initial residual = 4.3962163068e-16, Final residual = 7.38627104511e-61, No Iterations 43
DILUPBiCGStab:  Solving for ILambda_28_0, Initial residual = 4.29017907416e-16, Final residual = 7.19775441243e-61, No Iterations 43
DILUPBiCGStab:  Solving for ILambda_29_0, Initial residual = 5.30025382309e-16, Final residual = 6.40036426714e-61, No Iterations 40
DILUPBiCGStab:  Solving for ILambda_30_0, Initial residual = 5.42692404186e-16, Final residual = 4.06208791097e-61, No Iterations 36
DILUPBiCGStab:  Solving for ILambda_31_0, Initial residual = 5.53642503281e-16, Final residual = 6.67928352217e-61, No Iterations 28
DILUPBiCGStab:  Solving for ILambda_32_0, Initial residual = 3.81341093019e-16, Final residual = 5.11634807683e-62, No Iterations 2
DILUPBiCGStab:  Solving for ILambda_33_0, Initial residual = 3.96277063535e-16, Final residual = 5.21055688867e-62, No Iterations 2
DILUPBiCGStab:  Solving for ILambda_34_0, Initial residual = 3.95599948076e-16, Final residual = 1.63364775035e-62, No Iterations 2
DILUPBiCGStab:  Solving for ILambda_35_0, Initial residual = 4.18800670234e-16, Final residual = 1.98675814383e-61, No Iterations 2
DILUPBiCGStab:  Solving for ILambda_36_0, Initial residual = 4.14878023448e-16, Final residual = 1.7982176041e-74, No Iterations 2
DILUPBiCGStab:  Solving for ILambda_37_0, Initial residual = 4.23263105849e-16, Final residual = 5.07104697448e-62, No Iterations 2
DILUPBiCGStab:  Solving for ILambda_38_0, Initial residual = 4.26690153067e-16, Final residual = 6.7921698589e-62, No Iterations 2
DILUPBiCGStab:  Solving for ILambda_39_0, Initial residual = 3.93331339354e-16, Final residual = 1.68889730084e-61, No Iterations 2
DILUPBiCGStab:  Solving for ILambda_40_0, Initial residual = 1.06385851932e-15, Final residual = 1.31336213496e-61, No Iterations 28
DILUPBiCGStab:  Solving for ILambda_41_0, Initial residual = 3.21034783625e-15, Final residual = 7.82105937142e-61, No Iterations 37
DILUPBiCGStab:  Solving for ILambda_42_0, Initial residual = 3.64126996094e-15, Final residual = 2.48921952026e-61, No Iterations 43
DILUPBiCGStab:  Solving for ILambda_43_0, Initial residual = 4.84220153111e-15, Final residual = 7.09470946536e-61, No Iterations 45
DILUPBiCGStab:  Solving for ILambda_44_0, Initial residual = 8.09163035057e-15, Final residual = 2.5843379882e-61, No Iterations 44
DILUPBiCGStab:  Solving for ILambda_45_0, Initial residual = 2.92610142894e-15, Final residual = 3.8375382301e-61, No Iterations 41
DILUPBiCGStab:  Solving for ILambda_46_0, Initial residual = 1.82943612177e-15, Final residual = 2.69907061519e-61, No Iterations 37
DILUPBiCGStab:  Solving for ILambda_47_0, Initial residual = 1.08758611345e-15, Final residual = 3.85617670824e-62, No Iterations 28
DILUPBiCGStab:  Solving for ILambda_48_0, Initial residual = 1.18994408017e-15, Final residual = 1.5264432991e-61, No Iterations 15
DILUPBiCGStab:  Solving for ILambda_49_0, Initial residual = 1.41929382752e-15, Final residual = 1.72926633884e-62, No Iterations 16
DILUPBiCGStab:  Solving for ILambda_50_0, Initial residual = 1.73403286503e-15, Final residual = 1.07623774447e-61, No Iterations 18
DILUPBiCGStab:  Solving for ILambda_51_0, Initial residual = 2.0184777841e-15, Final residual = 1.54235584353e-61, No Iterations 14
DILUPBiCGStab:  Solving for ILambda_52_0, Initial residual = 1.96120782086e-15, Final residual = 6.15919211581e-62, No Iterations 15
DILUPBiCGStab:  Solving for ILambda_53_0, Initial residual = 1.64167254885e-15, Final residual = 1.21088265388e-61, No Iterations 15
DILUPBiCGStab:  Solving for ILambda_54_0, Initial residual = 1.32924902867e-15, Final residual = 1.64735594168e-61, No Iterations 16
DILUPBiCGStab:  Solving for ILambda_55_0, Initial residual = 1.11440355673e-15, Final residual = 1.05660011858e-63, No Iterations 15
DILUPBiCGStab:  Solving for ILambda_56_0, Initial residual = 1.13080661074e-15, Final residual = 4.46347236879e-62, No Iterations 28
DILUPBiCGStab:  Solving for ILambda_57_0, Initial residual = 1.85789740559e-15, Final residual = 9.91940124153e-62, No Iterations 35
DILUPBiCGStab:  Solving for ILambda_58_0, Initial residual = 2.92151390373e-15, Final residual = 4.36442415584e-61, No Iterations 43
DILUPBiCGStab:  Solving for ILambda_59_0, Initial residual = 7.83085320017e-15, Final residual = 8.67466991225e-61, No Iterations 47
DILUPBiCGStab:  Solving for ILambda_60_0, Initial residual = 4.87300960466e-15, Final residual = 4.69115485084e-61, No Iterations 45
DILUPBiCGStab:  Solving for ILambda_61_0, Initial residual = 3.57062016904e-15, Final residual = 1.90849607705e-61, No Iterations 45
DILUPBiCGStab:  Solving for ILambda_62_0, Initial residual = 3.11713024839e-15, Final residual = 3.72413684093e-61, No Iterations 38
DILUPBiCGStab:  Solving for ILambda_63_0, Initial residual = 1.0703285071e-15, Final residual = 1.76391167569e-63, No Iterations 29
DILUPBiCGStab:  Solving for ILambda_64_0, Initial residual = 2.09430519782e-15, Final residual = 3.90746312417e-62, No Iterations 14
DILUPBiCGStab:  Solving for ILambda_65_0, Initial residual = 1.10513128992e-15, Final residual = 7.02929764172e-61, No Iterations 17
DILUPBiCGStab:  Solving for ILambda_66_0, Initial residual = 1.10043567097e-15, Final residual = 6.01880051139e-61, No Iterations 15
DILUPBiCGStab:  Solving for ILambda_67_0, Initial residual = 1.15112211402e-15, Final residual = 2.05284321843e-61, No Iterations 17
DILUPBiCGStab:  Solving for ILambda_68_0, Initial residual = 1.18730972033e-15, Final residual = 2.18895569343e-61, No Iterations 18
DILUPBiCGStab:  Solving for ILambda_69_0, Initial residual = 1.18074591535e-15, Final residual = 7.53088447082e-62, No Iterations 17
DILUPBiCGStab:  Solving for ILambda_70_0, Initial residual = 1.15619776062e-15, Final residual = 4.20656582292e-61, No Iterations 17
DILUPBiCGStab:  Solving for ILambda_71_0, Initial residual = 2.31826725439e-15, Final residual = 9.78571041851e-61, No Iterations 14
DILUPBiCGStab:  Solving for ILambda_72_0, Initial residual = 1.0862332422e-15, Final residual = 1.22274477061e-61, No Iterations 29
DILUPBiCGStab:  Solving for ILambda_73_0, Initial residual = 1.8127760902e-15, Final residual = 3.56871881759e-61, No Iterations 38
DILUPBiCGStab:  Solving for ILambda_74_0, Initial residual = 5.05299790699e-15, Final residual = 3.81260627519e-61, No Iterations 41
DILUPBiCGStab:  Solving for ILambda_75_0, Initial residual = 6.19561243237e-14, Final residual = 6.26007045352e-61, No Iterations 44
DILUPBiCGStab:  Solving for ILambda_76_0, Initial residual = 4.64166794135e-15, Final residual = 3.61797164194e-61, No Iterations 45
DILUPBiCGStab:  Solving for ILambda_77_0, Initial residual = 5.30314719999e-15, Final residual = 3.66268240663e-61, No Iterations 42
DILUPBiCGStab:  Solving for ILambda_78_0, Initial residual = 1.28307057016e-15, Final residual = 9.25994107692e-61, No Iterations 38
DILUPBiCGStab:  Solving for ILambda_79_0, Initial residual = 3.30557841495e-15, Final residual = 2.9033812721e-61, No Iterations 30
DILUPBiCGStab:  Solving for ILambda_80_0, Initial residual = 4.20242599841e-16, Final residual = 8.29590792147e-62, No Iterations 2
DILUPBiCGStab:  Solving for ILambda_81_0, Initial residual = 4.44926721528e-16, Final residual = 3.10014065632e-62, No Iterations 2
DILUPBiCGStab:  Solving for ILambda_82_0, Initial residual = 4.41474520423e-16, Final residual = 2.55060097697e-62, No Iterations 2
DILUPBiCGStab:  Solving for ILambda_83_0, Initial residual = 4.12756259043e-16, Final residual = 3.65067409701e-62, No Iterations 2
DILUPBiCGStab:  Solving for ILambda_84_0, Initial residual = 3.96871239148e-16, Final residual = 5.15663779621e-62, No Iterations 2
DILUPBiCGStab:  Solving for ILambda_85_0, Initial residual = 4.08490975519e-16, Final residual = 4.14779970703e-62, No Iterations 2
DILUPBiCGStab:  Solving for ILambda_86_0, Initial residual = 3.57885432811e-16, Final residual = 3.60476382509e-62, No Iterations 2
DILUPBiCGStab:  Solving for ILambda_87_0, Initial residual = 3.74976479638e-16, Final residual = 6.84404795001e-76, No Iterations 2
DILUPBiCGStab:  Solving for ILambda_88_0, Initial residual = 3.34312297151e-15, Final residual = 6.1949797613e-61, No Iterations 30
DILUPBiCGStab:  Solving for ILambda_89_0, Initial residual = 1.27427214821e-15, Final residual = 5.23705225697e-61, No Iterations 40
DILUPBiCGStab:  Solving for ILambda_90_0, Initial residual = 5.24881004408e-15, Final residual = 5.94725914103e-61, No Iterations 41
DILUPBiCGStab:  Solving for ILambda_91_0, Initial residual = 4.64684352367e-15, Final residual = 3.53555080341e-61, No Iterations 46
DILUPBiCGStab:  Solving for ILambda_92_0, Initial residual = 6.62062856023e-14, Final residual = 5.07202181396e-61, No Iterations 46
DILUPBiCGStab:  Solving for ILambda_93_0, Initial residual = 5.02514915431e-15, Final residual = 7.44133752725e-61, No Iterations 42
DILUPBiCGStab:  Solving for ILambda_94_0, Initial residual = 1.78595864692e-15, Final residual = 1.9106274854e-61, No Iterations 38
DILUPBiCGStab:  Solving for ILambda_95_0, Initial residual = 1.06022412249e-15, Final residual = 3.45793180444e-61, No Iterations 29
DILUPBiCGStab:  Solving for ILambda_96_0, Initial residual = 4.90184343796e-16, Final residual = 3.4952483478e-61, No Iterations 14
DILUPBiCGStab:  Solving for ILambda_97_0, Initial residual = 2.9182860481e-16, Final residual = 8.49152924039e-62, No Iterations 15
DILUPBiCGStab:  Solving for ILambda_98_0, Initial residual = 2.6731342207e-16, Final residual = 4.06588800786e-62, No Iterations 14
DILUPBiCGStab:  Solving for ILambda_99_0, Initial residual = 2.7451457217e-16, Final residual = 1.27001693322e-61, No Iterations 15
DILUPBiCGStab:  Solving for ILambda_100_0, Initial residual = 2.73693671651e-16, Final residual = 7.21753330918e-63, No Iterations 14
DILUPBiCGStab:  Solving for ILambda_101_0, Initial residual = 2.84273260781e-16, Final residual = 3.62255524642e-62, No Iterations 15
DILUPBiCGStab:  Solving for ILambda_102_0, Initial residual = 3.08329894949e-16, Final residual = 5.63811282287e-61, No Iterations 15
DILUPBiCGStab:  Solving for ILambda_103_0, Initial residual = 5.34375645183e-16, Final residual = 8.08829002443e-61, No Iterations 11
DILUPBiCGStab:  Solving for ILambda_104_0, Initial residual = 2.23796516803e-16, Final residual = 2.54068135087e-61, No Iterations 27
DILUPBiCGStab:  Solving for ILambda_105_0, Initial residual = 3.55098110139e-16, Final residual = 3.62598721917e-61, No Iterations 37
DILUPBiCGStab:  Solving for ILambda_106_0, Initial residual = 2.24798321362e-15, Final residual = 4.60851830516e-61, No Iterations 42
DILUPBiCGStab:  Solving for ILambda_107_0, Initial residual = 4.90549415082e-16, Final residual = 2.93178784023e-61, No Iterations 44
DILUPBiCGStab:  Solving for ILambda_108_0, Initial residual = 3.66793988007e-16, Final residual = 6.80840303462e-61, No Iterations 44
DILUPBiCGStab:  Solving for ILambda_109_0, Initial residual = 1.1837847769e-15, Final residual = 7.3450979232e-61, No Iterations 43
DILUPBiCGStab:  Solving for ILambda_110_0, Initial residual = 9.05481485397e-16, Final residual = 2.94830987969e-61, No Iterations 38
DILUPBiCGStab:  Solving for ILambda_111_0, Initial residual = 2.7572739745e-16, Final residual = 1.47798438367e-61, No Iterations 28
DILUPBiCGStab:  Solving for ILambda_112_0, Initial residual = 9.68475657632e-17, Final residual = 1.94331564951e-62, No Iterations 2
DILUPBiCGStab:  Solving for ILambda_113_0, Initial residual = 1.01372206263e-16, Final residual = 6.62633097963e-63, No Iterations 2
DILUPBiCGStab:  Solving for ILambda_114_0, Initial residual = 1.0105098432e-16, Final residual = 7.24042668397e-63, No Iterations 2
DILUPBiCGStab:  Solving for ILambda_115_0, Initial residual = 9.68859764293e-17, Final residual = 4.04028035748e-63, No Iterations 2
DILUPBiCGStab:  Solving for ILambda_116_0, Initial residual = 1.02202284551e-16, Final residual = 1.00513207283e-62, No Iterations 2
DILUPBiCGStab:  Solving for ILambda_117_0, Initial residual = 8.72952070138e-17, Final residual = 2.98592015879e-63, No Iterations 2
DILUPBiCGStab:  Solving for ILambda_118_0, Initial residual = 9.15332971457e-17, Final residual = 3.04922095874e-63, No Iterations 2
DILUPBiCGStab:  Solving for ILambda_119_0, Initial residual = 8.96729292205e-17, Final residual = 4.74916488074e-63, No Iterations 2
DILUPBiCGStab:  Solving for ILambda_120_0, Initial residual = 2.75431329395e-16, Final residual = 6.21761451964e-61, No Iterations 27
DILUPBiCGStab:  Solving for ILambda_121_0, Initial residual = 8.93180214641e-16, Final residual = 3.13570794988e-61, No Iterations 37
DILUPBiCGStab:  Solving for ILambda_122_0, Initial residual = 1.21547765544e-15, Final residual = 7.86704147507e-61, No Iterations 42
DILUPBiCGStab:  Solving for ILambda_123_0, Initial residual = 3.65176661022e-16, Final residual = 9.26946680563e-61, No Iterations 48
DILUPBiCGStab:  Solving for ILambda_124_0, Initial residual = 4.82213620704e-16, Final residual = 1.341529453e-61, No Iterations 44
DILUPBiCGStab:  Solving for ILambda_125_0, Initial residual = 2.2233629964e-15, Final residual = 2.06592728652e-61, No Iterations 41
DILUPBiCGStab:  Solving for ILambda_126_0, Initial residual = 3.64457055888e-16, Final residual = 5.66883154651e-61, No Iterations 36
DILUPBiCGStab:  Solving for ILambda_127_0, Initial residual = 2.26741561149e-16, Final residual = 5.32095620124e-61, No Iterations 27
min/max(T) = 1000, 1000
PIMPLE: iteration 2
Radiation solver iter: 0
DILUPBiCGStab:  Solving for ILambda_0_0, Initial residual = 8.71575404672e-17, Final residual = 1.85274040764e-63, No Iterations 2
DILUPBiCGStab:  Solving for ILambda_1_0, Initial residual = 9.31608216526e-17, Final residual = 4.65089751246e-63, No Iterations 2
DILUPBiCGStab:  Solving for ILambda_2_0, Initial residual = 8.38909342619e-17, Final residual = 3.66284365925e-63, No Iterations 2
DILUPBiCGStab:  Solving for ILambda_3_0, Initial residual = 9.62248370881e-17, Final residual = 4.88193596969e-63, No Iterations 2
DILUPBiCGStab:  Solving for ILambda_4_0, Initial residual = 9.68468859284e-17, Final residual = 3.66606370773e-63, No Iterations 2
DILUPBiCGStab:  Solving for ILambda_5_0, Initial residual = 9.39858011802e-17, Final residual = 2.57007516022e-63, No Iterations 2
DILUPBiCGStab:  Solving for ILambda_6_0, Initial residual = 9.37964671889e-17, Final residual = 4.70657321368e-62, No Iterations 2
DILUPBiCGStab:  Solving for ILambda_7_0, Initial residual = 9.20588094448e-17, Final residual = 9.35873211008e-63, No Iterations 2
DILUPBiCGStab:  Solving for ILambda_8_0, Initial residual = 1.08787504324e-16, Final residual = 8.30253357832e-61, No Iterations 29
DILUPBiCGStab:  Solving for ILambda_9_0, Initial residual = 1.24379175503e-16, Final residual = 6.46636924532e-61, No Iterations 36
DILUPBiCGStab:  Solving for ILambda_10_0, Initial residual = 1.37066592424e-16, Final residual = 9.63918577707e-61, No Iterations 41
DILUPBiCGStab:  Solving for ILambda_11_0, Initial residual = 1.37798094667e-16, Final residual = 1.94754680399e-61, No Iterations 43
DILUPBiCGStab:  Solving for ILambda_12_0, Initial residual = 1.36488392928e-16, Final residual = 5.18465222144e-61, No Iterations 42
DILUPBiCGStab:  Solving for ILambda_13_0, Initial residual = 1.23382537689e-16, Final residual = 8.53467887975e-61, No Iterations 41
DILUPBiCGStab:  Solving for ILambda_14_0, Initial residual = 1.28300802536e-16, Final residual = 4.85663243963e-61, No Iterations 37
DILUPBiCGStab:  Solving for ILambda_15_0, Initial residual = 9.99816041829e-17, Final residual = 4.0793839879e-62, No Iterations 28
DILUPBiCGStab:  Solving for ILambda_16_0, Initial residual = 9.18959890106e-17, Final residual = 3.56756246571e-62, No Iterations 13
DILUPBiCGStab:  Solving for ILambda_17_0, Initial residual = 1.0160776902e-16, Final residual = 4.30965419376e-62, No Iterations 14
DILUPBiCGStab:  Solving for ILambda_18_0, Initial residual = 1.00613850545e-16, Final residual = 2.74627392248e-62, No Iterations 11
DILUPBiCGStab:  Solving for ILambda_19_0, Initial residual = 9.95757428084e-17, Final residual = 8.7846823836e-62, No Iterations 12
DILUPBiCGStab:  Solving for ILambda_20_0, Initial residual = 1.00377607953e-16, Final residual = 1.94568909455e-61, No Iterations 12
DILUPBiCGStab:  Solving for ILambda_21_0, Initial residual = 8.93734619919e-17, Final residual = 9.7875325383e-62, No Iterations 13
DILUPBiCGStab:  Solving for ILambda_22_0, Initial residual = 9.60069500353e-17, Final residual = 9.01120156049e-62, No Iterations 13
DILUPBiCGStab:  Solving for ILambda_23_0, Initial residual = 9.2943954352e-17, Final residual = 5.52148171325e-62, No Iterations 13
DILUPBiCGStab:  Solving for ILambda_24_0, Initial residual = 9.94316178311e-17, Final residual = 3.28420803414e-62, No Iterations 28
DILUPBiCGStab:  Solving for ILambda_25_0, Initial residual = 1.28243356496e-16, Final residual = 1.83453841619e-61, No Iterations 35
DILUPBiCGStab:  Solving for ILambda_26_0, Initial residual = 1.3355286627e-16, Final residual = 6.51987765562e-61, No Iterations 44
DILUPBiCGStab:  Solving for ILambda_27_0, Initial residual = 1.45953732824e-16, Final residual = 3.27205302312e-61, No Iterations 42
DILUPBiCGStab:  Solving for ILambda_28_0, Initial residual = 1.44600861575e-16, Final residual = 3.82147671552e-61, No Iterations 43
DILUPBiCGStab:  Solving for ILambda_29_0, Initial residual = 1.31805350921e-16, Final residual = 3.79128060537e-62, No Iterations 44
DILUPBiCGStab:  Solving for ILambda_30_0, Initial residual = 1.20480322935e-16, Final residual = 3.81899681903e-61, No Iterations 36
DILUPBiCGStab:  Solving for ILambda_31_0, Initial residual = 1.05993043386e-16, Final residual = 4.23532665845e-61, No Iterations 27
DILUPBiCGStab:  Solving for ILambda_32_0, Initial residual = 3.70998086399e-16, Final residual = 4.98314102193e-62, No Iterations 2
DILUPBiCGStab:  Solving for ILambda_33_0, Initial residual = 3.98881510647e-16, Final residual = 5.42555279151e-62, No Iterations 2
DILUPBiCGStab:  Solving for ILambda_34_0, Initial residual = 3.83320771951e-16, Final residual = 9.76801234944e-63, No Iterations 2
DILUPBiCGStab:  Solving for ILambda_35_0, Initial residual = 3.84235149754e-16, Final residual = 5.88590367613e-62, No Iterations 2
DILUPBiCGStab:  Solving for ILambda_36_0, Initial residual = 3.79314505485e-16, Final residual = 3.60286843179e-62, No Iterations 2
DILUPBiCGStab:  Solving for ILambda_37_0, Initial residual = 4.0512035459e-16, Final residual = 1.19753187381e-61, No Iterations 2
DILUPBiCGStab:  Solving for ILambda_38_0, Initial residual = 4.10944499306e-16, Final residual = 9.61635955882e-62, No Iterations 2
DILUPBiCGStab:  Solving for ILambda_39_0, Initial residual = 3.95971137876e-16, Final residual = 4.93916670599e-62, No Iterations 2
DILUPBiCGStab:  Solving for ILambda_40_0, Initial residual = 4.23401112313e-16, Final residual = 1.59608847264e-61, No Iterations 29
DILUPBiCGStab:  Solving for ILambda_41_0, Initial residual = 5.25154705897e-16, Final residual = 5.80001213817e-61, No Iterations 39
DILUPBiCGStab:  Solving for ILambda_42_0, Initial residual = 5.97130175651e-16, Final residual = 8.61617339053e-61, No Iterations 42
DILUPBiCGStab:  Solving for ILambda_43_0, Initial residual = 6.42185547067e-16, Final residual = 8.07441668513e-61, No Iterations 47
DILUPBiCGStab:  Solving for ILambda_44_0, Initial residual = 6.42231775833e-16, Final residual = 8.64681355076e-61, No Iterations 45
DILUPBiCGStab:  Solving for ILambda_45_0, Initial residual = 6.61375243915e-16, Final residual = 2.79442380896e-61, No Iterations 45
DILUPBiCGStab:  Solving for ILambda_46_0, Initial residual = 6.12584860119e-16, Final residual = 3.06887017895e-61, No Iterations 36
DILUPBiCGStab:  Solving for ILambda_47_0, Initial residual = 4.2560241739e-16, Final residual = 1.15259779047e-61, No Iterations 29
DILUPBiCGStab:  Solving for ILambda_48_0, Initial residual = 3.85785173094e-16, Final residual = 1.61424827938e-61, No Iterations 15
DILUPBiCGStab:  Solving for ILambda_49_0, Initial residual = 4.30199460295e-16, Final residual = 8.25742458098e-61, No Iterations 16
DILUPBiCGStab:  Solving for ILambda_50_0, Initial residual = 4.52808726178e-16, Final residual = 8.12291574734e-63, No Iterations 13
DILUPBiCGStab:  Solving for ILambda_51_0, Initial residual = 4.19257519218e-16, Final residual = 4.50053441465e-63, No Iterations 15
DILUPBiCGStab:  Solving for ILambda_52_0, Initial residual = 4.13601973532e-16, Final residual = 5.27604843787e-61, No Iterations 18
DILUPBiCGStab:  Solving for ILambda_53_0, Initial residual = 4.15735974963e-16, Final residual = 4.66968053331e-61, No Iterations 16
DILUPBiCGStab:  Solving for ILambda_54_0, Initial residual = 4.1813851114e-16, Final residual = 6.5810067037e-61, No Iterations 16
DILUPBiCGStab:  Solving for ILambda_55_0, Initial residual = 3.78385171316e-16, Final residual = 3.8185668618e-61, No Iterations 16
DILUPBiCGStab:  Solving for ILambda_56_0, Initial residual = 4.53245180119e-16, Final residual = 3.24492878666e-61, No Iterations 29
DILUPBiCGStab:  Solving for ILambda_57_0, Initial residual = 5.48341831359e-16, Final residual = 9.89347293527e-61, No Iterations 39
DILUPBiCGStab:  Solving for ILambda_58_0, Initial residual = 6.44383452969e-16, Final residual = 7.49505893423e-61, No Iterations 42
DILUPBiCGStab:  Solving for ILambda_59_0, Initial residual = 6.62412671817e-16, Final residual = 2.48042233826e-61, No Iterations 44
DILUPBiCGStab:  Solving for ILambda_60_0, Initial residual = 6.40640962405e-16, Final residual = 5.13856695632e-61, No Iterations 45
DILUPBiCGStab:  Solving for ILambda_61_0, Initial residual = 6.08734275822e-16, Final residual = 4.89141432649e-61, No Iterations 45
DILUPBiCGStab:  Solving for ILambda_62_0, Initial residual = 5.68662093477e-16, Final residual = 5.23493131293e-61, No Iterations 38
DILUPBiCGStab:  Solving for ILambda_63_0, Initial residual = 4.19587239095e-16, Final residual = 5.74810730821e-61, No Iterations 29
DILUPBiCGStab:  Solving for ILambda_64_0, Initial residual = 3.96487812322e-16, Final residual = 4.4172193503e-62, No Iterations 15
DILUPBiCGStab:  Solving for ILambda_65_0, Initial residual = 3.95189327858e-16, Final residual = 4.58962370671e-61, No Iterations 17
DILUPBiCGStab:  Solving for ILambda_66_0, Initial residual = 4.1156994732e-16, Final residual = 1.3040731203e-62, No Iterations 16
DILUPBiCGStab:  Solving for ILambda_67_0, Initial residual = 4.29830309999e-16, Final residual = 8.18623351492e-61, No Iterations 16
DILUPBiCGStab:  Solving for ILambda_68_0, Initial residual = 4.25202674528e-16, Final residual = 2.77747553577e-61, No Iterations 15
DILUPBiCGStab:  Solving for ILambda_69_0, Initial residual = 4.58563527745e-16, Final residual = 3.266881316e-61, No Iterations 14
DILUPBiCGStab:  Solving for ILambda_70_0, Initial residual = 4.53840715402e-16, Final residual = 2.68804549998e-61, No Iterations 15
DILUPBiCGStab:  Solving for ILambda_71_0, Initial residual = 4.22106706857e-16, Final residual = 8.53864772749e-63, No Iterations 17
DILUPBiCGStab:  Solving for ILambda_72_0, Initial residual = 4.02107326764e-16, Final residual = 2.42788982033e-61, No Iterations 28
DILUPBiCGStab:  Solving for ILambda_73_0, Initial residual = 5.25748881511e-16, Final residual = 5.19107541289e-61, No Iterations 39
DILUPBiCGStab:  Solving for ILambda_74_0, Initial residual = 5.83683723178e-16, Final residual = 2.00837761281e-61, No Iterations 44
DILUPBiCGStab:  Solving for ILambda_75_0, Initial residual = 6.60479221651e-16, Final residual = 5.56608131597e-61, No Iterations 43
DILUPBiCGStab:  Solving for ILambda_76_0, Initial residual = 6.60603631419e-16, Final residual = 1.32450923766e-61, No Iterations 45
DILUPBiCGStab:  Solving for ILambda_77_0, Initial residual = 6.01470241003e-16, Final residual = 3.23135445225e-61, No Iterations 43
DILUPBiCGStab:  Solving for ILambda_78_0, Initial residual = 4.92521275915e-16, Final residual = 1.93550220992e-61, No Iterations 38
DILUPBiCGStab:  Solving for ILambda_79_0, Initial residual = 5.03077070826e-16, Final residual = 9.93274687584e-61, No Iterations 29
DILUPBiCGStab:  Solving for ILambda_80_0, Initial residual = 3.89948481398e-16, Final residual = 2.2000337096e-62, No Iterations 2
DILUPBiCGStab:  Solving for ILambda_81_0, Initial residual = 4.31459874011e-16, Final residual = 1.0823318909e-61, No Iterations 2
DILUPBiCGStab:  Solving for ILambda_82_0, Initial residual = 4.19822461935e-16, Final residual = 3.52966593681e-62, No Iterations 2
DILUPBiCGStab:  Solving for ILambda_83_0, Initial residual = 3.60227463691e-16, Final residual = 2.50380599466e-62, No Iterations 2
DILUPBiCGStab:  Solving for ILambda_84_0, Initial residual = 3.23695860976e-16, Final residual = 4.47297785504e-62, No Iterations 2
DILUPBiCGStab:  Solving for ILambda_85_0, Initial residual = 3.68981016553e-16, Final residual = 3.70366368712e-62, No Iterations 2
DILUPBiCGStab:  Solving for ILambda_86_0, Initial residual = 3.87373267183e-16, Final residual = 1.32051437022e-61, No Iterations 2
DILUPBiCGStab:  Solving for ILambda_87_0, Initial residual = 3.65804828375e-16, Final residual = 4.24337259806e-62, No Iterations 2
DILUPBiCGStab:  Solving for ILambda_88_0, Initial residual = 5.01158577026e-16, Final residual = 2.32322331378e-62, No Iterations 29
DILUPBiCGStab:  Solving for ILambda_89_0, Initial residual = 5.51457514239e-16, Final residual = 2.06381032188e-62, No Iterations 40
DILUPBiCGStab:  Solving for ILambda_90_0, Initial residual = 5.86135887295e-16, Final residual = 3.21934506724e-61, No Iterations 42
DILUPBiCGStab:  Solving for ILambda_91_0, Initial residual = 6.18944034821e-16, Final residual = 6.75542292557e-61, No Iterations 49
DILUPBiCGStab:  Solving for ILambda_92_0, Initial residual = 6.95592688978e-16, Final residual = 2.7951649705e-61, No Iterations 44
DILUPBiCGStab:  Solving for ILambda_93_0, Initial residual = 5.93575999326e-16, Final residual = 2.86759742897e-61, No Iterations 46
DILUPBiCGStab:  Solving for ILambda_94_0, Initial residual = 5.53168658426e-16, Final residual = 3.76654763475e-61, No Iterations 37
DILUPBiCGStab:  Solving for ILambda_95_0, Initial residual = 3.97691119915e-16, Final residual = 9.65550130796e-61, No Iterations 28
DILUPBiCGStab:  Solving for ILambda_96_0, Initial residual = 9.623503461e-17, Final residual = 3.79375642368e-61, No Iterations 13
DILUPBiCGStab:  Solving for ILambda_97_0, Initial residual = 9.69627977615e-17, Final residual = 2.33160793671e-61, No Iterations 13
DILUPBiCGStab:  Solving for ILambda_98_0, Initial residual = 9.20632283709e-17, Final residual = 3.05404297914e-61, No Iterations 13
DILUPBiCGStab:  Solving for ILambda_99_0, Initial residual = 1.01999693781e-16, Final residual = 5.49663961655e-62, No Iterations 13
DILUPBiCGStab:  Solving for ILambda_100_0, Initial residual = 1.0403205991e-16, Final residual = 2.47864484774e-61, No Iterations 12
DILUPBiCGStab:  Solving for ILambda_101_0, Initial residual = 1.00715825765e-16, Final residual = 7.22887139121e-62, No Iterations 12
DILUPBiCGStab:  Solving for ILambda_102_0, Initial residual = 1.05220411138e-16, Final residual = 9.5255532344e-62, No Iterations 12
DILUPBiCGStab:  Solving for ILambda_103_0, Initial residual = 1.00139665773e-16, Final residual = 1.244598499e-61, No Iterations 12
DILUPBiCGStab:  Solving for ILambda_104_0, Initial residual = 9.37322228005e-17, Final residual = 1.32010538528e-61, No Iterations 28
DILUPBiCGStab:  Solving for ILambda_105_0, Initial residual = 1.23300617596e-16, Final residual = 4.38889549952e-61, No Iterations 36
DILUPBiCGStab:  Solving for ILambda_106_0, Initial residual = 1.31215254316e-16, Final residual = 7.73592735279e-61, No Iterations 43
DILUPBiCGStab:  Solving for ILambda_107_0, Initial residual = 1.33207170275e-16, Final residual = 5.41609720185e-61, No Iterations 45
DILUPBiCGStab:  Solving for ILambda_108_0, Initial residual = 1.35220840947e-16, Final residual = 1.59376414337e-61, No Iterations 44
DILUPBiCGStab:  Solving for ILambda_109_0, Initial residual = 1.41825436011e-16, Final residual = 1.3523201522e-61, No Iterations 44
DILUPBiCGStab:  Solving for ILambda_110_0, Initial residual = 1.27115170648e-16, Final residual = 9.95463991621e-62, No Iterations 37
DILUPBiCGStab:  Solving for ILambda_111_0, Initial residual = 1.04373336979e-16, Final residual = 3.68959577472e-61, No Iterations 27
DILUPBiCGStab:  Solving for ILambda_112_0, Initial residual = 9.16988369191e-17, Final residual = 9.0456267261e-63, No Iterations 2
DILUPBiCGStab:  Solving for ILambda_113_0, Initial residual = 9.80196009553e-17, Final residual = 1.11335089035e-62, No Iterations 2
DILUPBiCGStab:  Solving for ILambda_114_0, Initial residual = 9.6622540445e-17, Final residual = 2.65239619702e-63, No Iterations 2
DILUPBiCGStab:  Solving for ILambda_115_0, Initial residual = 9.26747397719e-17, Final residual = 2.77052793148e-63, No Iterations 2
DILUPBiCGStab:  Solving for ILambda_116_0, Initial residual = 9.5332213998e-17, Final residual = 8.0019689157e-63, No Iterations 2
DILUPBiCGStab:  Solving for ILambda_117_0, Initial residual = 8.63876275582e-17, Final residual = 7.21345833251e-63, No Iterations 2
DILUPBiCGStab:  Solving for ILambda_118_0, Initial residual = 8.70834384742e-17, Final residual = 4.28103277785e-63, No Iterations 2
DILUPBiCGStab:  Solving for ILambda_119_0, Initial residual = 9.11148588275e-17, Final residual = 5.82520284278e-63, No Iterations 2
DILUPBiCGStab:  Solving for ILambda_120_0, Initial residual = 1.01772968876e-16, Final residual = 3.39116352851e-62, No Iterations 28
DILUPBiCGStab:  Solving for ILambda_121_0, Initial residual = 1.36336449851e-16, Final residual = 1.92333125195e-61, No Iterations 37
DILUPBiCGStab:  Solving for ILambda_122_0, Initial residual = 1.34274170991e-16, Final residual = 4.65353982237e-61, No Iterations 41
DILUPBiCGStab:  Solving for ILambda_123_0, Initial residual = 1.40478683276e-16, Final residual = 8.81012701648e-61, No Iterations 42
DILUPBiCGStab:  Solving for ILambda_124_0, Initial residual = 1.3680315644e-16, Final residual = 5.4888073523e-61, No Iterations 48
DILUPBiCGStab:  Solving for ILambda_125_0, Initial residual = 1.39234925513e-16, Final residual = 5.25537235454e-61, No Iterations 42
DILUPBiCGStab:  Solving for ILambda_126_0, Initial residual = 1.06683415623e-16, Final residual = 7.11541419725e-61, No Iterations 35
DILUPBiCGStab:  Solving for ILambda_127_0, Initial residual = 9.54501653355e-17, Final residual = 1.09184046589e-61, No Iterations 27
min/max(T) = 1000, 1000
PIMPLE: iteration 3
Radiation solver iter: 0
DILUPBiCGStab:  Solving for ILambda_0_0, Initial residual = 8.38474248348e-17, Final residual = 1.81798670069e-63, No Iterations 2
DILUPBiCGStab:  Solving for ILambda_1_0, Initial residual = 8.60395521416e-17, Final residual = 2.31768496381e-63, No Iterations 2
DILUPBiCGStab:  Solving for ILambda_2_0, Initial residual = 8.07259633589e-17, Final residual = 6.03550924065e-63, No Iterations 2
DILUPBiCGStab:  Solving for ILambda_3_0, Initial residual = 9.12324702476e-17, Final residual = 3.38091332103e-63, No Iterations 2
DILUPBiCGStab:  Solving for ILambda_4_0, Initial residual = 9.5263210766e-17, Final residual = 3.84831963086e-63, No Iterations 2
DILUPBiCGStab:  Solving for ILambda_5_0, Initial residual = 8.73835855376e-17, Final residual = 7.53128056448e-63, No Iterations 2
DILUPBiCGStab:  Solving for ILambda_6_0, Initial residual = 9.50354661086e-17, Final residual = 1.09664125229e-61, No Iterations 2
DILUPBiCGStab:  Solving for ILambda_7_0, Initial residual = 8.60109990801e-17, Final residual = 1.50624912457e-62, No Iterations 2
DILUPBiCGStab:  Solving for ILambda_8_0, Initial residual = 1.00377268035e-16, Final residual = 1.00174371353e-62, No Iterations 29
DILUPBiCGStab:  Solving for ILambda_9_0, Initial residual = 1.02134301071e-16, Final residual = 1.42911609461e-61, No Iterations 36
DILUPBiCGStab:  Solving for ILambda_10_0, Initial residual = 1.09244013391e-16, Final residual = 8.7927200762e-61, No Iterations 42
DILUPBiCGStab:  Solving for ILambda_11_0, Initial residual = 1.21851889641e-16, Final residual = 8.784151813e-61, No Iterations 43
DILUPBiCGStab:  Solving for ILambda_12_0, Initial residual = 1.17106642749e-16, Final residual = 3.40142038623e-61, No Iterations 42
DILUPBiCGStab:  Solving for ILambda_13_0, Initial residual = 1.19577502323e-16, Final residual = 3.73804282647e-61, No Iterations 43
DILUPBiCGStab:  Solving for ILambda_14_0, Initial residual = 1.06228606143e-16, Final residual = 1.86255056264e-61, No Iterations 36
DILUPBiCGStab:  Solving for ILambda_15_0, Initial residual = 8.84624833623e-17, Final residual = 6.72060476094e-61, No Iterations 27
DILUPBiCGStab:  Solving for ILambda_16_0, Initial residual = 8.8229639944e-17, Final residual = 6.6161345438e-61, No Iterations 13
DILUPBiCGStab:  Solving for ILambda_17_0, Initial residual = 9.22936923675e-17, Final residual = 2.17179622121e-61, No Iterations 12
DILUPBiCGStab:  Solving for ILambda_18_0, Initial residual = 8.91158046034e-17, Final residual = 4.42019363637e-61, No Iterations 13
DILUPBiCGStab:  Solving for ILambda_19_0, Initial residual = 9.30571468459e-17, Final residual = 1.18613719957e-61, No Iterations 13
DILUPBiCGStab:  Solving for ILambda_20_0, Initial residual = 8.97871414666e-17, Final residual = 8.43645208001e-62, No Iterations 14
DILUPBiCGStab:  Solving for ILambda_21_0, Initial residual = 8.3540139506e-17, Final residual = 7.85817847494e-63, No Iterations 12
DILUPBiCGStab:  Solving for ILambda_22_0, Initial residual = 9.50854339663e-17, Final residual = 5.94666608263e-61, No Iterations 13
DILUPBiCGStab:  Solving for ILambda_23_0, Initial residual = 8.77741506292e-17, Final residual = 1.42433299833e-61, No Iterations 13
DILUPBiCGStab:  Solving for ILambda_24_0, Initial residual = 8.8719460916e-17, Final residual = 5.94198377801e-62, No Iterations 28
DILUPBiCGStab:  Solving for ILambda_25_0, Initial residual = 1.07550544909e-16, Final residual = 6.07089492142e-61, No Iterations 36
DILUPBiCGStab:  Solving for ILambda_26_0, Initial residual = 1.11102341812e-16, Final residual = 1.00314124736e-62, No Iterations 43
DILUPBiCGStab:  Solving for ILambda_27_0, Initial residual = 1.09742332298e-16, Final residual = 2.91583891614e-61, No Iterations 43
DILUPBiCGStab:  Solving for ILambda_28_0, Initial residual = 1.00006418153e-16, Final residual = 3.9779968964e-61, No Iterations 46
DILUPBiCGStab:  Solving for ILambda_29_0, Initial residual = 1.06265997057e-16, Final residual = 5.17671585953e-61, No Iterations 41
DILUPBiCGStab:  Solving for ILambda_30_0, Initial residual = 1.03954898661e-16, Final residual = 6.47299016663e-62, No Iterations 36
DILUPBiCGStab:  Solving for ILambda_31_0, Initial residual = 8.56143154753e-17, Final residual = 6.47878631902e-62, No Iterations 28
DILUPBiCGStab:  Solving for ILambda_32_0, Initial residual = 3.69216239393e-16, Final residual = 5.39681712169e-62, No Iterations 2
DILUPBiCGStab:  Solving for ILambda_33_0, Initial residual = 3.83078750763e-16, Final residual = 4.3398593627e-62, No Iterations 2
DILUPBiCGStab:  Solving for ILambda_34_0, Initial residual = 3.57959534804e-16, Final residual = 1.84017282239e-62, No Iterations 2
DILUPBiCGStab:  Solving for ILambda_35_0, Initial residual = 3.40850812273e-16, Final residual = 3.357881199e-62, No Iterations 2
DILUPBiCGStab:  Solving for ILambda_36_0, Initial residual = 3.27388723599e-16, Final residual = 2.98327342593e-62, No Iterations 2
DILUPBiCGStab:  Solving for ILambda_37_0, Initial residual = 3.99169080766e-16, Final residual = 6.15748310861e-62, No Iterations 2
DILUPBiCGStab:  Solving for ILambda_38_0, Initial residual = 4.04772959008e-16, Final residual = 2.20864499757e-61, No Iterations 2
DILUPBiCGStab:  Solving for ILambda_39_0, Initial residual = 3.84341883818e-16, Final residual = 8.4794481158e-62, No Iterations 2
DILUPBiCGStab:  Solving for ILambda_40_0, Initial residual = 3.83426146345e-16, Final residual = 8.25135028769e-61, No Iterations 30
DILUPBiCGStab:  Solving for ILambda_41_0, Initial residual = 4.11649487991e-16, Final residual = 1.41058561923e-61, No Iterations 41
DILUPBiCGStab:  Solving for ILambda_42_0, Initial residual = 4.0798109942e-16, Final residual = 4.38021339517e-61, No Iterations 42
DILUPBiCGStab:  Solving for ILambda_43_0, Initial residual = 4.72305028521e-16, Final residual = 7.25520365954e-61, No Iterations 45
DILUPBiCGStab:  Solving for ILambda_44_0, Initial residual = 4.76802135711e-16, Final residual = 4.01078062464e-61, No Iterations 46
DILUPBiCGStab:  Solving for ILambda_45_0, Initial residual = 5.4304999729e-16, Final residual = 9.0351989991e-61, No Iterations 42
DILUPBiCGStab:  Solving for ILambda_46_0, Initial residual = 5.12046811153e-16, Final residual = 2.30179667956e-61, No Iterations 37
DILUPBiCGStab:  Solving for ILambda_47_0, Initial residual = 3.98859755933e-16, Final residual = 1.36332980022e-61, No Iterations 27
DILUPBiCGStab:  Solving for ILambda_48_0, Initial residual = 3.7719138141e-16, Final residual = 2.29507438099e-61, No Iterations 14
DILUPBiCGStab:  Solving for ILambda_49_0, Initial residual = 4.15329433754e-16, Final residual = 8.48070873135e-61, No Iterations 15
DILUPBiCGStab:  Solving for ILambda_50_0, Initial residual = 4.07010295329e-16, Final residual = 4.67684343523e-62, No Iterations 15
DILUPBiCGStab:  Solving for ILambda_51_0, Initial residual = 3.56870439458e-16, Final residual = 7.28303671074e-62, No Iterations 15
DILUPBiCGStab:  Solving for ILambda_52_0, Initial residual = 3.28706923273e-16, Final residual = 2.88411871771e-61, No Iterations 17
DILUPBiCGStab:  Solving for ILambda_53_0, Initial residual = 3.67151581111e-16, Final residual = 3.4276272815e-62, No Iterations 16
DILUPBiCGStab:  Solving for ILambda_54_0, Initial residual = 3.86733542638e-16, Final residual = 7.8449276048e-61, No Iterations 15
DILUPBiCGStab:  Solving for ILambda_55_0, Initial residual = 3.78670022096e-16, Final residual = 6.80184274357e-62, No Iterations 14
DILUPBiCGStab:  Solving for ILambda_56_0, Initial residual = 4.20307184146e-16, Final residual = 4.29796199619e-61, No Iterations 28
DILUPBiCGStab:  Solving for ILambda_57_0, Initial residual = 4.5937049165e-16, Final residual = 5.65580367295e-61, No Iterations 36
DILUPBiCGStab:  Solving for ILambda_58_0, Initial residual = 4.70239690404e-16, Final residual = 1.12923727199e-61, No Iterations 42
DILUPBiCGStab:  Solving for ILambda_59_0, Initial residual = 4.3120901497e-16, Final residual = 5.90632901901e-61, No Iterations 46
DILUPBiCGStab:  Solving for ILambda_60_0, Initial residual = 4.9378440897e-16, Final residual = 3.57166389004e-62, No Iterations 45
DILUPBiCGStab:  Solving for ILambda_61_0, Initial residual = 4.25928058258e-16, Final residual = 2.35678880853e-61, No Iterations 44
DILUPBiCGStab:  Solving for ILambda_62_0, Initial residual = 4.59622030526e-16, Final residual = 2.74059269449e-61, No Iterations 40
DILUPBiCGStab:  Solving for ILambda_63_0, Initial residual = 3.82714359311e-16, Final residual = 1.57621758707e-61, No Iterations 28
DILUPBiCGStab:  Solving for ILambda_64_0, Initial residual = 3.62708860704e-16, Final residual = 1.97307002551e-61, No Iterations 14
DILUPBiCGStab:  Solving for ILambda_65_0, Initial residual = 3.67873565666e-16, Final residual = 9.04262108145e-63, No Iterations 16
[...]
DILUPBiCGStab:  Solving for ILambda_108_0, Initial residual = 1.19890906165e-16, Final residual = 2.20749472979e-61, No Iterations 43
DILUPBiCGStab:  Solving for ILambda_109_0, Initial residual = 9.99034231811e-17, Final residual = 7.74496150278e-61, No Iterations 42
DILUPBiCGStab:  Solving for ILambda_110_0, Initial residual = 1.13308405732e-16, Final residual = 7.13366962822e-62, No Iterations 37
DILUPBiCGStab:  Solving for ILambda_111_0, Initial residual = 9.13347853847e-17, Final residual = 9.52966582572e-62, No Iterations 27
DILUPBiCGStab:  Solving for ILambda_112_0, Initial residual = 9.1589723434e-17, Final residual = 5.4036434599e-63, No Iterations 2
DILUPBiCGStab:  Solving for ILambda_113_0, Initial residual = 9.46639363914e-17, Final residual = 7.44717818215e-63, No Iterations 2
DILUPBiCGStab:  Solving for ILambda_114_0, Initial residual = 9.77588843102e-17, Final residual = 5.84350759631e-63, No Iterations 2
DILUPBiCGStab:  Solving for ILambda_115_0, Initial residual = 9.32818322467e-17, Final residual = 2.65204235412e-63, No Iterations 2
DILUPBiCGStab:  Solving for ILambda_116_0, Initial residual = 9.48590489785e-17, Final residual = 2.2061650106e-63, No Iterations 2
DILUPBiCGStab:  Solving for ILambda_117_0, Initial residual = 8.63784497885e-17, Final residual = 5.17292155053e-63, No Iterations 2
DILUPBiCGStab:  Solving for ILambda_118_0, Initial residual = 8.6182997284e-17, Final residual = 2.5992469715e-63, No Iterations 2
DILUPBiCGStab:  Solving for ILambda_119_0, Initial residual = 8.64277378113e-17, Final residual = 6.09599914859e-63, No Iterations 2
DILUPBiCGStab:  Solving for ILambda_120_0, Initial residual = 9.62724255239e-17, Final residual = 3.80986472099e-61, No Iterations 26
DILUPBiCGStab:  Solving for ILambda_121_0, Initial residual = 1.14322719251e-16, Final residual = 3.58425191263e-61, No Iterations 36
DILUPBiCGStab:  Solving for ILambda_122_0, Initial residual = 1.12256021464e-16, Final residual = 1.55705337614e-61, No Iterations 41
DILUPBiCGStab:  Solving for ILambda_123_0, Initial residual = 1.22931807218e-16, Final residual = 1.89292810403e-61, No Iterations 42
DILUPBiCGStab:  Solving for ILambda_124_0, Initial residual = 1.38995623664e-16, Final residual = 5.07354918229e-62, No Iterations 45
DILUPBiCGStab:  Solving for ILambda_125_0, Initial residual = 1.04912785892e-16, Final residual = 4.93337279528e-61, No Iterations 41
DILUPBiCGStab:  Solving for ILambda_126_0, Initial residual = 9.714465357e-17, Final residual = 3.00779217051e-61, No Iterations 36
DILUPBiCGStab:  Solving for ILambda_127_0, Initial residual = 8.92174399057e-17, Final residual = 5.63492962628e-61, No Iterations 26
min/max(T) = 1000, 1000
PIMPLE: iteration 10
Radiation solver iter: 0
DILUPBiCGStab:  Solving for ILambda_0_0, Initial residual = 8.5056171106e-17, Final residual = 2.3571590369e-63, No Iterations 2
DILUPBiCGStab:  Solving for ILambda_1_0, Initial residual = 8.72809304831e-17, Final residual = 4.19219991188e-63, No Iterations 2
DILUPBiCGStab:  Solving for ILambda_2_0, Initial residual = 8.92728464418e-17, Final residual = 7.62346176248e-63, No Iterations 2
DILUPBiCGStab:  Solving for ILambda_3_0, Initial residual = 9.36506426247e-17, Final residual = 3.45388325487e-63, No Iterations 2
DILUPBiCGStab:  Solving for ILambda_4_0, Initial residual = 9.5512710137e-17, Final residual = 4.21409856849e-63, No Iterations 2
DILUPBiCGStab:  Solving for ILambda_5_0, Initial residual = 8.96314592978e-17, Final residual = 3.83101921377e-63, No Iterations 2
DILUPBiCGStab:  Solving for ILambda_6_0, Initial residual = 9.70056273538e-17, Final residual = 7.02092363932e-63, No Iterations 2
DILUPBiCGStab:  Solving for ILambda_7_0, Initial residual = 8.73706686764e-17, Final residual = 5.96226705499e-63, No Iterations 2
DILUPBiCGStab:  Solving for ILambda_8_0, Initial residual = 1.02242734722e-16, Final residual = 1.4842520209e-61, No Iterations 27
DILUPBiCGStab:  Solving for ILambda_9_0, Initial residual = 1.12632649942e-16, Final residual = 2.96883975635e-61, No Iterations 36
DILUPBiCGStab:  Solving for ILambda_10_0, Initial residual = 9.8118177001e-17, Final residual = 2.00159181849e-61, No Iterations 41
DILUPBiCGStab:  Solving for ILambda_11_0, Initial residual = 1.07154881056e-16, Final residual = 2.50544752735e-61, No Iterations 43
DILUPBiCGStab:  Solving for ILambda_12_0, Initial residual = 1.03805335005e-16, Final residual = 8.49107279712e-61, No Iterations 42
DILUPBiCGStab:  Solving for ILambda_13_0, Initial residual = 1.20163859837e-16, Final residual = 1.76029747555e-61, No Iterations 42
DILUPBiCGStab:  Solving for ILambda_14_0, Initial residual = 1.08800761102e-16, Final residual = 2.19901033811e-61, No Iterations 37
DILUPBiCGStab:  Solving for ILambda_15_0, Initial residual = 8.68971637395e-17, Final residual = 9.36430196679e-62, No Iterations 25
DILUPBiCGStab:  Solving for ILambda_16_0, Initial residual = 8.57978708708e-17, Final residual = 2.28040416162e-62, No Iterations 13
DILUPBiCGStab:  Solving for ILambda_17_0, Initial residual = 9.63594443781e-17, Final residual = 9.22352638943e-62, No Iterations 13
DILUPBiCGStab:  Solving for ILambda_18_0, Initial residual = 9.88371023001e-17, Final residual = 6.41535761439e-62, No Iterations 13
DILUPBiCGStab:  Solving for ILambda_19_0, Initial residual = 8.95220058953e-17, Final residual = 4.12930568077e-62, No Iterations 13
DILUPBiCGStab:  Solving for ILambda_20_0, Initial residual = 9.3931074479e-17, Final residual = 4.19939751487e-62, No Iterations 13
DILUPBiCGStab:  Solving for ILambda_21_0, Initial residual = 8.93340315736e-17, Final residual = 1.39633667593e-61, No Iterations 13
DILUPBiCGStab:  Solving for ILambda_22_0, Initial residual = 8.68835670435e-17, Final residual = 2.01158788733e-61, No Iterations 12
DILUPBiCGStab:  Solving for ILambda_23_0, Initial residual = 8.64766859168e-17, Final residual = 1.88077438124e-61, No Iterations 13
DILUPBiCGStab:  Solving for ILambda_24_0, Initial residual = 8.86225844573e-17, Final residual = 9.16439274567e-61, No Iterations 27
DILUPBiCGStab:  Solving for ILambda_25_0, Initial residual = 1.04537517083e-16, Final residual = 5.99370005126e-61, No Iterations 37
DILUPBiCGStab:  Solving for ILambda_26_0, Initial residual = 1.13269315231e-16, Final residual = 2.58039886203e-61, No Iterations 40
DILUPBiCGStab:  Solving for ILambda_27_0, Initial residual = 9.50334266042e-17, Final residual = 7.80677020708e-61, No Iterations 43
DILUPBiCGStab:  Solving for ILambda_28_0, Initial residual = 1.0306499491e-16, Final residual = 2.64381974504e-61, No Iterations 45
DILUPBiCGStab:  Solving for ILambda_29_0, Initial residual = 9.02572472296e-17, Final residual = 1.80039794902e-61, No Iterations 42
DILUPBiCGStab:  Solving for ILambda_30_0, Initial residual = 1.15223160441e-16, Final residual = 3.25134324758e-61, No Iterations 37
DILUPBiCGStab:  Solving for ILambda_31_0, Initial residual = 8.94315878672e-17, Final residual = 1.64350061201e-61, No Iterations 27
DILUPBiCGStab:  Solving for ILambda_32_0, Initial residual = 3.70862799274e-16, Final residual = 1.04394519012e-61, No Iterations 2
DILUPBiCGStab:  Solving for ILambda_33_0, Initial residual = 3.74036268112e-16, Final residual = 5.51956550764e-62, No Iterations 2
DILUPBiCGStab:  Solving for ILambda_34_0, Initial residual = 3.76289240633e-16, Final residual = 4.28938624056e-62, No Iterations 2
DILUPBiCGStab:  Solving for ILambda_35_0, Initial residual = 3.7360661252e-16, Final residual = 6.02789473583e-62, No Iterations 2
DILUPBiCGStab:  Solving for ILambda_36_0, Initial residual = 3.47460166181e-16, Final residual = 3.06742527995e-62, No Iterations 2
DILUPBiCGStab:  Solving for ILambda_37_0, Initial residual = 4.12964288491e-16, Final residual = 1.57651571137e-61, No Iterations 2
DILUPBiCGStab:  Solving for ILambda_38_0, Initial residual = 4.06259757711e-16, Final residual = 8.03401617103e-62, No Iterations 2
DILUPBiCGStab:  Solving for ILambda_39_0, Initial residual = 3.78967109903e-16, Final residual = 5.52520464954e-62, No Iterations 2
DILUPBiCGStab:  Solving for ILambda_40_0, Initial residual = 3.89873699571e-16, Final residual = 9.87269510909e-61, No Iterations 28
DILUPBiCGStab:  Solving for ILambda_41_0, Initial residual = 4.99030014272e-16, Final residual = 1.03669389338e-61, No Iterations 37
DILUPBiCGStab:  Solving for ILambda_42_0, Initial residual = 4.50824288402e-16, Final residual = 9.56916511029e-61, No Iterations 42
DILUPBiCGStab:  Solving for ILambda_43_0, Initial residual = 3.73094696917e-16, Final residual = 1.7896640681e-61, No Iterations 44
DILUPBiCGStab:  Solving for ILambda_44_0, Initial residual = 5.53250918437e-16, Final residual = 5.58644185166e-61, No Iterations 42
DILUPBiCGStab:  Solving for ILambda_45_0, Initial residual = 5.98318526879e-16, Final residual = 9.21665844601e-61, No Iterations 41
DILUPBiCGStab:  Solving for ILambda_46_0, Initial residual = 4.4950065005e-16, Final residual = 3.37752712853e-61, No Iterations 37
DILUPBiCGStab:  Solving for ILambda_47_0, Initial residual = 4.48432629582e-16, Final residual = 3.29613040615e-61, No Iterations 29
DILUPBiCGStab:  Solving for ILambda_48_0, Initial residual = 3.83888434007e-16, Final residual = 1.66992547506e-61, No Iterations 14
DILUPBiCGStab:  Solving for ILambda_49_0, Initial residual = 3.98884909821e-16, Final residual = 3.74498407405e-61, No Iterations 14
DILUPBiCGStab:  Solving for ILambda_50_0, Initial residual = 4.37345883693e-16, Final residual = 4.1009289709e-61, No Iterations 16
DILUPBiCGStab:  Solving for ILambda_51_0, Initial residual = 3.71560309777e-16, Final residual = 1.75158906856e-62, No Iterations 15
DILUPBiCGStab:  Solving for ILambda_52_0, Initial residual = 3.31753942839e-16, Final residual = 7.4724492331e-63, No Iterations 13
DILUPBiCGStab:  Solving for ILambda_53_0, Initial residual = 3.54907756395e-16, Final residual = 1.22326507669e-61, No Iterations 14
DILUPBiCGStab:  Solving for ILambda_54_0, Initial residual = 3.81094992822e-16, Final residual = 5.14256607546e-61, No Iterations 15
DILUPBiCGStab:  Solving for ILambda_55_0, Initial residual = 3.64002586326e-16, Final residual = 5.19608949252e-61, No Iterations 13
DILUPBiCGStab:  Solving for ILambda_56_0, Initial residual = 3.89508628284e-16, Final residual = 1.73547287074e-61, No Iterations 27
DILUPBiCGStab:  Solving for ILambda_57_0, Initial residual = 5.05228747962e-16, Final residual = 2.92738022407e-61, No Iterations 38
DILUPBiCGStab:  Solving for ILambda_58_0, Initial residual = 6.05594798724e-16, Final residual = 5.19928741199e-61, No Iterations 41
DILUPBiCGStab:  Solving for ILambda_59_0, Initial residual = 5.27579676622e-16, Final residual = 2.42330054684e-61, No Iterations 45
DILUPBiCGStab:  Solving for ILambda_60_0, Initial residual = 4.20503656403e-16, Final residual = 2.07939855772e-61, No Iterations 45
DILUPBiCGStab:  Solving for ILambda_61_0, Initial residual = 5.54410036768e-16, Final residual = 2.99188685004e-61, No Iterations 43
DILUPBiCGStab:  Solving for ILambda_62_0, Initial residual = 4.23026523339e-16, Final residual = 5.43447455722e-61, No Iterations 38
DILUPBiCGStab:  Solving for ILambda_63_0, Initial residual = 3.75691665846e-16, Final residual = 7.87904131819e-62, No Iterations 29
DILUPBiCGStab:  Solving for ILambda_64_0, Initial residual = 3.67847731944e-16, Final residual = 1.33521657182e-61, No Iterations 16
DILUPBiCGStab:  Solving for ILambda_65_0, Initial residual = 3.74630443726e-16, Final residual = 5.59897662246e-62, No Iterations 15
DILUPBiCGStab:  Solving for ILambda_66_0, Initial residual = 3.67152260945e-16, Final residual = 1.99195300794e-61, No Iterations 16
DILUPBiCGStab:  Solving for ILambda_67_0, Initial residual = 3.54692928599e-16, Final residual = 2.91106865433e-61, No Iterations 16
DILUPBiCGStab:  Solving for ILambda_68_0, Initial residual = 3.95987453911e-16, Final residual = 7.05951291321e-61, No Iterations 16
DILUPBiCGStab:  Solving for ILambda_69_0, Initial residual = 4.30039699117e-16, Final residual = 4.69749855923e-61, No Iterations 14
DILUPBiCGStab:  Solving for ILambda_70_0, Initial residual = 4.11737866515e-16, Final residual = 1.25434758381e-61, No Iterations 15
DILUPBiCGStab:  Solving for ILambda_71_0, Initial residual = 3.78011942012e-16, Final residual = 6.27220224591e-62, No Iterations 14
DILUPBiCGStab:  Solving for ILambda_72_0, Initial residual = 3.74124646636e-16, Final residual = 1.31997680068e-61, No Iterations 28
DILUPBiCGStab:  Solving for ILambda_73_0, Initial residual = 4.5099968578e-16, Final residual = 9.69683443158e-62, No Iterations 38
DILUPBiCGStab:  Solving for ILambda_74_0, Initial residual = 4.41149559389e-16, Final residual = 1.45678134649e-61, No Iterations 44
DILUPBiCGStab:  Solving for ILambda_75_0, Initial residual = 5.21480878648e-16, Final residual = 1.38029911135e-61, No Iterations 46
DILUPBiCGStab:  Solving for ILambda_76_0, Initial residual = 4.76013527345e-16, Final residual = 1.34258467061e-61, No Iterations 48
DILUPBiCGStab:  Solving for ILambda_77_0, Initial residual = 4.97361699678e-16, Final residual = 5.35944180079e-61, No Iterations 40
DILUPBiCGStab:  Solving for ILambda_78_0, Initial residual = 5.13597514328e-16, Final residual = 7.09302372365e-61, No Iterations 35
DILUPBiCGStab:  Solving for ILambda_79_0, Initial residual = 3.97569429486e-16, Final residual = 4.98332383029e-61, No Iterations 29
DILUPBiCGStab:  Solving for ILambda_80_0, Initial residual = 3.88651356603e-16, Final residual = 3.78883972674e-62, No Iterations 2
DILUPBiCGStab:  Solving for ILambda_81_0, Initial residual = 4.16089489058e-16, Final residual = 1.18296700081e-61, No Iterations 2
DILUPBiCGStab:  Solving for ILambda_82_0, Initial residual = 4.32742722275e-16, Final residual = 2.01560540876e-62, No Iterations 2
DILUPBiCGStab:  Solving for ILambda_83_0, Initial residual = 4.09622900458e-16, Final residual = 2.35499148034e-61, No Iterations 2
DILUPBiCGStab:  Solving for ILambda_84_0, Initial residual = 3.43055516524e-16, Final residual = 2.55410589826e-62, No Iterations 2
DILUPBiCGStab:  Solving for ILambda_85_0, Initial residual = 3.70800934307e-16, Final residual = 7.2779403101e-62, No Iterations 2
DILUPBiCGStab:  Solving for ILambda_86_0, Initial residual = 3.89191145433e-16, Final residual = 2.75987495893e-61, No Iterations 2
DILUPBiCGStab:  Solving for ILambda_87_0, Initial residual = 3.6711894904e-16, Final residual = 4.68823118397e-62, No Iterations 2
DILUPBiCGStab:  Solving for ILambda_88_0, Initial residual = 4.2236776342e-16, Final residual = 1.54019885141e-61, No Iterations 28
DILUPBiCGStab:  Solving for ILambda_89_0, Initial residual = 5.31500283904e-16, Final residual = 2.03055372823e-61, No Iterations 36
DILUPBiCGStab:  Solving for ILambda_90_0, Initial residual = 5.69634257238e-16, Final residual = 8.04744194589e-61, No Iterations 42
DILUPBiCGStab:  Solving for ILambda_91_0, Initial residual = 4.79099297494e-16, Final residual = 4.87479386819e-61, No Iterations 47
DILUPBiCGStab:  Solving for ILambda_92_0, Initial residual = 4.48475459175e-16, Final residual = 9.50703020097e-61, No Iterations 46
DILUPBiCGStab:  Solving for ILambda_93_0, Initial residual = 4.7891166309e-16, Final residual = 4.53270587601e-61, No Iterations 42
DILUPBiCGStab:  Solving for ILambda_94_0, Initial residual = 5.56857442041e-16, Final residual = 1.26958630771e-61, No Iterations 38
DILUPBiCGStab:  Solving for ILambda_95_0, Initial residual = 3.88504512287e-16, Final residual = 1.92425998614e-63, No Iterations 29
DILUPBiCGStab:  Solving for ILambda_96_0, Initial residual = 8.7594334325e-17, Final residual = 2.48455667625e-61, No Iterations 12
DILUPBiCGStab:  Solving for ILambda_97_0, Initial residual = 8.42512467049e-17, Final residual = 1.95796923076e-61, No Iterations 12
DILUPBiCGStab:  Solving for ILambda_98_0, Initial residual = 8.90716153415e-17, Final residual = 8.24095825153e-62, No Iterations 13
DILUPBiCGStab:  Solving for ILambda_99_0, Initial residual = 9.56585347012e-17, Final residual = 1.14736878839e-61, No Iterations 13
DILUPBiCGStab:  Solving for ILambda_100_0, Initial residual = 1.02248853235e-16, Final residual = 4.3038241119e-61, No Iterations 12
DILUPBiCGStab:  Solving for ILambda_101_0, Initial residual = 9.24320387489e-17, Final residual = 5.00260120475e-62, No Iterations 12
DILUPBiCGStab:  Solving for ILambda_102_0, Initial residual = 1.00510855573e-16, Final residual = 4.40626802259e-61, No Iterations 13
DILUPBiCGStab:  Solving for ILambda_103_0, Initial residual = 9.08106327553e-17, Final residual = 8.95073386375e-61, No Iterations 12
DILUPBiCGStab:  Solving for ILambda_104_0, Initial residual = 8.58532774069e-17, Final residual = 4.99030336134e-62, No Iterations 28
DILUPBiCGStab:  Solving for ILambda_105_0, Initial residual = 9.65691734133e-17, Final residual = 8.45688516639e-61, No Iterations 36
DILUPBiCGStab:  Solving for ILambda_106_0, Initial residual = 9.86399502086e-17, Final residual = 5.34863375635e-61, No Iterations 44
DILUPBiCGStab:  Solving for ILambda_107_0, Initial residual = 1.22171411996e-16, Final residual = 4.25672496108e-61, No Iterations 47
DILUPBiCGStab:  Solving for ILambda_108_0, Initial residual = 1.16186826267e-16, Final residual = 3.24464108675e-61, No Iterations 43
DILUPBiCGStab:  Solving for ILambda_109_0, Initial residual = 1.17838144992e-16, Final residual = 2.07426924349e-61, No Iterations 43
DILUPBiCGStab:  Solving for ILambda_110_0, Initial residual = 1.0618067779e-16, Final residual = 6.53024302536e-61, No Iterations 36
DILUPBiCGStab:  Solving for ILambda_111_0, Initial residual = 9.24650107367e-17, Final residual = 3.64546987192e-62, No Iterations 28
DILUPBiCGStab:  Solving for ILambda_112_0, Initial residual = 9.05862872719e-17, Final residual = 8.67316204817e-63, No Iterations 2
DILUPBiCGStab:  Solving for ILambda_113_0, Initial residual = 9.61449564993e-17, Final residual = 1.74341541725e-62, No Iterations 2
DILUPBiCGStab:  Solving for ILambda_114_0, Initial residual = 9.38494943032e-17, Final residual = 4.64401092711e-62, No Iterations 2
DILUPBiCGStab:  Solving for ILambda_115_0, Initial residual = 9.2020738696e-17, Final residual = 3.04784590938e-62, No Iterations 2
DILUPBiCGStab:  Solving for ILambda_116_0, Initial residual = 9.27519010215e-17, Final residual = 2.15255609227e-63, No Iterations 2
DILUPBiCGStab:  Solving for ILambda_117_0, Initial residual = 8.77500164938e-17, Final residual = 9.37994562629e-61, No Iterations 2
DILUPBiCGStab:  Solving for ILambda_118_0, Initial residual = 8.70970351701e-17, Final residual = 3.89968628359e-63, No Iterations 2
DILUPBiCGStab:  Solving for ILambda_119_0, Initial residual = 8.67302642965e-17, Final residual = 4.79407279974e-63, No Iterations 2
DILUPBiCGStab:  Solving for ILambda_120_0, Initial residual = 9.56143454393e-17, Final residual = 1.05201834521e-61, No Iterations 27
DILUPBiCGStab:  Solving for ILambda_121_0, Initial residual = 1.10717215398e-16, Final residual = 3.24357773381e-61, No Iterations 36
DILUPBiCGStab:  Solving for ILambda_122_0, Initial residual = 1.10036700765e-16, Final residual = 6.17527634852e-61, No Iterations 42
DILUPBiCGStab:  Solving for ILambda_123_0, Initial residual = 1.19421480237e-16, Final residual = 4.37884778801e-61, No Iterations 45
DILUPBiCGStab:  Solving for ILambda_124_0, Initial residual = 1.27229382894e-16, Final residual = 6.00488668447e-61, No Iterations 45
DILUPBiCGStab:  Solving for ILambda_125_0, Initial residual = 1.20493919631e-16, Final residual = 7.04068098175e-61, No Iterations 41
DILUPBiCGStab:  Solving for ILambda_126_0, Initial residual = 9.83731150503e-17, Final residual = 8.94625146964e-61, No Iterations 37
DILUPBiCGStab:  Solving for ILambda_127_0, Initial residual = 8.85325063465e-17, Final residual = 3.18642807106e-61, No Iterations 27
min/max(T) = 1000, 1000
ExecutionTime = 15.66 s  ClockTime = 15 s

writeObjects writeObjects1.writeObjects write:
    writing object a
    writing object qem
End

