/*---------------------------------------------------------------------------*\
| =========                 |                                                 |
| \\      /  F ield         | OpenFOAM: The Open Source CFD Toolbox           |
|  \\    /   O peration     | Version:  2306                                  |
|   \\  /    A nd           | Website:  www.openfoam.com                      |
|    \\/     M anipulation  |                                                 |
\*---------------------------------------------------------------------------*/
Build  : _fbf00d6b-20230626 OPENFOAM=2306 version=2306
Arch   : "LSB;label=32;scalar=64"
Exec   : fireRADFoam_MaCFP
Date   : Mar 12 2024
Time   : 20:17:43
Host   : pop-os
PID    : 180757
I/O    : uncollated
Case   : /home/rafay/Desktop/Study/Radiative_Heat_Transfer/Local_copy_RHT2324/01_Projects/02_Rafay/Case_1_q1D_SolidAngle/new_case3/th_6-ph_12/tau_0.05/res_4
nProcs : 1
trapFpe: Floating point exception trapping enabled (FOAM_SIGFPE).
fileModificationChecking : Monitoring run-time modified files using timeStampMaster (fileModificationSkew 5, maxFileModificationPolls 20)
allowSystemOperations : Allowing user-supplied system call operations

// * * * * * * * * * * * * * * * * * * * * * * * * * * * * * * * * * * * * * //
Create time

Create mesh for time = 0


PIMPLE: no residual control data found. Calculations will employ 10 corrector loops

Reading thermophysical properties

Selecting thermodynamics package 
{
    type            hePsiThermo;
    mixture         singleStepReactingMixture;
    transport       sutherland;
    thermo          janaf;
    energy          sensibleEnthalpy;
    equationOfState perfectGas;
    specie          specie;
}

Selecting chemistryReader foamChemistryReader
    elements not defined in "/home/rafay/Desktop/Study/Radiative_Heat_Transfer/Local_copy_RHT2324/01_Projects/02_Rafay/Case_1_q1D_SolidAngle/new_case3/th_6-ph_12/tau_0.05/res_4/constant/reactions"
Fuel heat of combustion :47168962.4726
stoichiometric air-fuel ratio :14.6914056505
stoichiometric oxygen-fuel ratio :3.42181919285
Maximum products mass concentrations:
    H2O: 0.0818486943001
    CO2: 0.199950099979
    N2: 0.718201205721
Creating component thermo properties:
    multi-component carrier - 6 species
    no liquid components
    no solid components
Creating field rho


Reading field U

Reading/calculating face flux field phi

Selecting radiationModel fvDOM
Selecting absorptionEmissionModel constantAbsorptionEmission
Selecting scatterModel none
Selecting sootModel none
fvDOM : Allocated 288 rays with average orientation:
	I0 : dAve : 	(0.000387488209079 0.00591192763451 0.0163624617374) : omega : 	0.0175372336349 : d : 	(0.0169275754541 0.25826489366 0.965925826289)
	I1 : dAve : 	(0.00115583459655 0.00581077291359 0.0163624617374) : omega : 	0.0175372336349 : d : 	(0.050493090853 0.253845909725 0.965925826289)
	I2 : dAve : 	(0.00190440433361 0.00561019425706 0.0163624617374) : omega : 	0.0175372336349 : d : 	(0.083194655468 0.245083551895 0.965925826289)
	I3 : dAve : 	(0.00262038918453 0.00531362362136 0.0163624617374) : omega : 	0.0175372336349 : d : 	(0.114472736462 0.232127746542 0.965925826289)
	I4 : dAve : 	(0.00329153844998 0.00492613541228 0.0163624617374) : omega : 	0.0175372336349 : d : 	(0.143792157198 0.215200171088 0.965925826289)
	I5 : dAve : 	(0.00390636857998 0.00445435966052 0.0163624617374) : omega : 	0.0175372336349 : d : 	(0.170651254257 0.194590461042 0.965925826289)
	I6 : dAve : 	(0.00445435966052 0.00390636857998 0.0163624617374) : omega : 	0.0175372336349 : d : 	(0.194590461042 0.170651254257 0.965925826289)
	I7 : dAve : 	(0.00492613541228 0.00329153844998 0.0163624617374) : omega : 	0.0175372336349 : d : 	(0.215200171088 0.143792157198 0.965925826289)
	I8 : dAve : 	(0.00531362362136 0.00262038918453 0.0163624617374) : omega : 	0.0175372336349 : d : 	(0.232127746542 0.114472736462 0.965925826289)
	I9 : dAve : 	(0.00561019425706 0.00190440433361 0.0163624617374) : omega : 	0.0175372336349 : d : 	(0.245083551895 0.083194655468 0.965925826289)
	I10 : dAve : 	(0.00581077291359 0.00115583459655 0.0163624617374) : omega : 	0.0175372336349 : d : 	(0.253845909725 0.050493090853 0.965925826289)
	I11 : dAve : 	(0.00591192763451 0.000387488209079 0.0163624617374) : omega : 	0.0175372336349 : d : 	(0.25826489366 0.0169275754541 0.965925826289)
	I12 : dAve : 	(0.00591192763451 -0.000387488209079 0.0163624617374) : omega : 	0.0175372336349 : d : 	(0.25826489366 -0.0169275754541 0.965925826289)
	I13 : dAve : 	(0.00581077291359 -0.00115583459655 0.0163624617374) : omega : 	0.0175372336349 : d : 	(0.253845909725 -0.050493090853 0.965925826289)
	I14 : dAve : 	(0.00561019425706 -0.00190440433361 0.0163624617374) : omega : 	0.0175372336349 : d : 	(0.245083551895 -0.083194655468 0.965925826289)
	I15 : dAve : 	(0.00531362362136 -0.00262038918453 0.0163624617374) : omega : 	0.0175372336349 : d : 	(0.232127746542 -0.114472736462 0.965925826289)
	I16 : dAve : 	(0.00492613541228 -0.00329153844998 0.0163624617374) : omega : 	0.0175372336349 : d : 	(0.215200171088 -0.143792157198 0.965925826289)
	I17 : dAve : 	(0.00445435966052 -0.00390636857998 0.0163624617374) : omega : 	0.0175372336349 : d : 	(0.194590461042 -0.170651254257 0.965925826289)
	I18 : dAve : 	(0.00390636857998 -0.00445435966052 0.0163624617374) : omega : 	0.0175372336349 : d : 	(0.170651254257 -0.194590461042 0.965925826289)
	I19 : dAve : 	(0.00329153844998 -0.00492613541228 0.0163624617374) : omega : 	0.0175372336349 : d : 	(0.143792157198 -0.215200171088 0.965925826289)
	I20 : dAve : 	(0.00262038918453 -0.00531362362136 0.0163624617374) : omega : 	0.0175372336349 : d : 	(0.114472736462 -0.232127746542 0.965925826289)
	I21 : dAve : 	(0.00190440433361 -0.00561019425706 0.0163624617374) : omega : 	0.0175372336349 : d : 	(0.083194655468 -0.245083551895 0.965925826289)
	I22 : dAve : 	(0.00115583459655 -0.00581077291359 0.0163624617374) : omega : 	0.0175372336349 : d : 	(0.050493090853 -0.253845909725 0.965925826289)
	I23 : dAve : 	(0.000387488209079 -0.00591192763451 0.0163624617374) : omega : 	0.0175372336349 : d : 	(0.0169275754541 -0.25826489366 0.965925826289)
	I24 : dAve : 	(-0.000387488209079 -0.00591192763451 0.0163624617374) : omega : 	0.0175372336349 : d : 	(-0.0169275754541 -0.25826489366 0.965925826289)
	I25 : dAve : 	(-0.00115583459655 -0.00581077291359 0.0163624617374) : omega : 	0.0175372336349 : d : 	(-0.050493090853 -0.253845909725 0.965925826289)
	I26 : dAve : 	(-0.00190440433361 -0.00561019425706 0.0163624617374) : omega : 	0.0175372336349 : d : 	(-0.083194655468 -0.245083551895 0.965925826289)
	I27 : dAve : 	(-0.00262038918453 -0.00531362362136 0.0163624617374) : omega : 	0.0175372336349 : d : 	(-0.114472736462 -0.232127746542 0.965925826289)
	I28 : dAve : 	(-0.00329153844998 -0.00492613541228 0.0163624617374) : omega : 	0.0175372336349 : d : 	(-0.143792157198 -0.215200171088 0.965925826289)
	I29 : dAve : 	(-0.00390636857998 -0.00445435966052 0.0163624617374) : omega : 	0.0175372336349 : d : 	(-0.170651254257 -0.194590461042 0.965925826289)
	I30 : dAve : 	(-0.00445435966052 -0.00390636857998 0.0163624617374) : omega : 	0.0175372336349 : d : 	(-0.194590461042 -0.170651254257 0.965925826289)
	I31 : dAve : 	(-0.00492613541228 -0.00329153844998 0.0163624617374) : omega : 	0.0175372336349 : d : 	(-0.215200171088 -0.143792157198 0.965925826289)
	I32 : dAve : 	(-0.00531362362136 -0.00262038918453 0.0163624617374) : omega : 	0.0175372336349 : d : 	(-0.232127746542 -0.114472736462 0.965925826289)
	I33 : dAve : 	(-0.00561019425706 -0.00190440433361 0.0163624617374) : omega : 	0.0175372336349 : d : 	(-0.245083551895 -0.083194655468 0.965925826289)
	I34 : dAve : 	(-0.00581077291359 -0.00115583459655 0.0163624617374) : omega : 	0.0175372336349 : d : 	(-0.253845909725 -0.050493090853 0.965925826289)
	I35 : dAve : 	(-0.00591192763451 -0.000387488209079 0.0163624617374) : omega : 	0.0175372336349 : d : 	(-0.25826489366 -0.0169275754541 0.965925826289)
	I36 : dAve : 	(-0.00591192763451 0.000387488209079 0.0163624617374) : omega : 	0.0175372336349 : d : 	(-0.25826489366 0.0169275754541 0.965925826289)
	I37 : dAve : 	(-0.00581077291359 0.00115583459655 0.0163624617374) : omega : 	0.0175372336349 : d : 	(-0.253845909725 0.050493090853 0.965925826289)
	I38 : dAve : 	(-0.00561019425706 0.00190440433361 0.0163624617374) : omega : 	0.0175372336349 : d : 	(-0.245083551895 0.083194655468 0.965925826289)
	I39 : dAve : 	(-0.00531362362136 0.00262038918453 0.0163624617374) : omega : 	0.0175372336349 : d : 	(-0.232127746542 0.114472736462 0.965925826289)
	I40 : dAve : 	(-0.00492613541228 0.00329153844998 0.0163624617374) : omega : 	0.0175372336349 : d : 	(-0.215200171088 0.143792157198 0.965925826289)
	I41 : dAve : 	(-0.00445435966052 0.00390636857998 0.0163624617374) : omega : 	0.0175372336349 : d : 	(-0.194590461042 0.170651254257 0.965925826289)
	I42 : dAve : 	(-0.00390636857998 0.00445435966052 0.0163624617374) : omega : 	0.0175372336349 : d : 	(-0.170651254257 0.194590461042 0.965925826289)
	I43 : dAve : 	(-0.00329153844998 0.00492613541228 0.0163624617374) : omega : 	0.0175372336349 : d : 	(-0.143792157198 0.215200171088 0.965925826289)
	I44 : dAve : 	(-0.00262038918453 0.00531362362136 0.0163624617374) : omega : 	0.0175372336349 : d : 	(-0.114472736462 0.232127746542 0.965925826289)
	I45 : dAve : 	(-0.00190440433361 0.00561019425706 0.0163624617374) : omega : 	0.0175372336349 : d : 	(-0.083194655468 0.245083551895 0.965925826289)
	I46 : dAve : 	(-0.00115583459655 0.00581077291359 0.0163624617374) : omega : 	0.0175372336349 : d : 	(-0.050493090853 0.253845909725 0.965925826289)
	I47 : dAve : 	(-0.000387488209079 0.00591192763451 0.0163624617374) : omega : 	0.0175372336349 : d : 	(-0.0169275754541 0.25826489366 0.965925826289)
	I48 : dAve : 	(0.00223973005487 0.034171677215 0.0327249234749) : omega : 	0.0479126133149 : d : 	(0.0462469961895 0.70559281129 0.707106781187)
	I49 : dAve : 	(0.00668086776241 0.0335869903436 0.0327249234749) : omega : 	0.0479126133149 : d : 	(0.137949689641 0.693519922661 0.707106781187)
	I50 : dAve : 	(0.0110076939702 0.0324276207555 0.0327249234749) : omega : 	0.0479126133149 : d : 	(0.227292025657 0.669580715876 0.707106781187)
	I51 : dAve : 	(0.0151461754823 0.0307134055855 0.0327249234749) : omega : 	0.0479126133149 : d : 	(0.312745332096 0.634184797399 0.707106781187)
	I52 : dAve : 	(0.0190255017326 0.0284736755306 0.0327249234749) : omega : 	0.0479126133149 : d : 	(0.392847479194 0.58793780121 0.707106781187)
	I53 : dAve : 	(0.0225792963734 0.025746752993 0.0327249234749) : omega : 	0.0479126133149 : d : 	(0.466227897004 0.531631026234 0.707106781187)
	I54 : dAve : 	(0.025746752993 0.0225792963734 0.0327249234749) : omega : 	0.0479126133149 : d : 	(0.531631026234 0.466227897004 0.707106781187)
	I55 : dAve : 	(0.0284736755306 0.0190255017326 0.0327249234749) : omega : 	0.0479126133149 : d : 	(0.58793780121 0.392847479194 0.707106781187)
	I56 : dAve : 	(0.0307134055855 0.0151461754823 0.0327249234749) : omega : 	0.0479126133149 : d : 	(0.634184797399 0.312745332096 0.707106781187)
	I57 : dAve : 	(0.0324276207555 0.0110076939702 0.0327249234749) : omega : 	0.0479126133149 : d : 	(0.669580715876 0.227292025657 0.707106781187)
	I58 : dAve : 	(0.0335869903436 0.00668086776241 0.0327249234749) : omega : 	0.0479126133149 : d : 	(0.693519922661 0.137949689641 0.707106781187)
	I59 : dAve : 	(0.034171677215 0.00223973005487 0.0327249234749) : omega : 	0.0479126133149 : d : 	(0.70559281129 0.0462469961895 0.707106781187)
	I60 : dAve : 	(0.034171677215 -0.00223973005487 0.0327249234749) : omega : 	0.0479126133149 : d : 	(0.70559281129 -0.0462469961895 0.707106781187)
	I61 : dAve : 	(0.0335869903436 -0.00668086776241 0.0327249234749) : omega : 	0.0479126133149 : d : 	(0.693519922661 -0.137949689641 0.707106781187)
	I62 : dAve : 	(0.0324276207555 -0.0110076939702 0.0327249234749) : omega : 	0.0479126133149 : d : 	(0.669580715876 -0.227292025657 0.707106781187)
	I63 : dAve : 	(0.0307134055855 -0.0151461754823 0.0327249234749) : omega : 	0.0479126133149 : d : 	(0.634184797399 -0.312745332096 0.707106781187)
	I64 : dAve : 	(0.0284736755306 -0.0190255017326 0.0327249234749) : omega : 	0.0479126133149 : d : 	(0.58793780121 -0.392847479194 0.707106781187)
	I65 : dAve : 	(0.025746752993 -0.0225792963734 0.0327249234749) : omega : 	0.0479126133149 : d : 	(0.531631026234 -0.466227897004 0.707106781187)
	I66 : dAve : 	(0.0225792963734 -0.025746752993 0.0327249234749) : omega : 	0.0479126133149 : d : 	(0.466227897004 -0.531631026234 0.707106781187)
	I67 : dAve : 	(0.0190255017326 -0.0284736755306 0.0327249234749) : omega : 	0.0479126133149 : d : 	(0.392847479194 -0.58793780121 0.707106781187)
	I68 : dAve : 	(0.0151461754823 -0.0307134055855 0.0327249234749) : omega : 	0.0479126133149 : d : 	(0.312745332096 -0.634184797399 0.707106781187)
	I69 : dAve : 	(0.0110076939702 -0.0324276207555 0.0327249234749) : omega : 	0.0479126133149 : d : 	(0.227292025657 -0.669580715876 0.707106781187)
	I70 : dAve : 	(0.00668086776241 -0.0335869903436 0.0327249234749) : omega : 	0.0479126133149 : d : 	(0.137949689641 -0.693519922661 0.707106781187)
	I71 : dAve : 	(0.00223973005487 -0.034171677215 0.0327249234749) : omega : 	0.0479126133149 : d : 	(0.0462469961895 -0.70559281129 0.707106781187)
	I72 : dAve : 	(-0.00223973005487 -0.034171677215 0.0327249234749) : omega : 	0.0479126133149 : d : 	(-0.0462469961895 -0.70559281129 0.707106781187)
	I73 : dAve : 	(-0.00668086776241 -0.0335869903436 0.0327249234749) : omega : 	0.0479126133149 : d : 	(-0.137949689641 -0.693519922661 0.707106781187)
	I74 : dAve : 	(-0.0110076939702 -0.0324276207555 0.0327249234749) : omega : 	0.0479126133149 : d : 	(-0.227292025657 -0.669580715876 0.707106781187)
	I75 : dAve : 	(-0.0151461754823 -0.0307134055855 0.0327249234749) : omega : 	0.0479126133149 : d : 	(-0.312745332096 -0.634184797399 0.707106781187)
	I76 : dAve : 	(-0.0190255017326 -0.0284736755306 0.0327249234749) : omega : 	0.0479126133149 : d : 	(-0.392847479194 -0.58793780121 0.707106781187)
	I77 : dAve : 	(-0.0225792963734 -0.025746752993 0.0327249234749) : omega : 	0.0479126133149 : d : 	(-0.466227897004 -0.531631026234 0.707106781187)
	I78 : dAve : 	(-0.025746752993 -0.0225792963734 0.0327249234749) : omega : 	0.0479126133149 : d : 	(-0.531631026234 -0.466227897004 0.707106781187)
	I79 : dAve : 	(-0.0284736755306 -0.0190255017326 0.0327249234749) : omega : 	0.0479126133149 : d : 	(-0.58793780121 -0.392847479194 0.707106781187)
	I80 : dAve : 	(-0.0307134055855 -0.0151461754823 0.0327249234749) : omega : 	0.0479126133149 : d : 	(-0.634184797399 -0.312745332096 0.707106781187)
	I81 : dAve : 	(-0.0324276207555 -0.0110076939702 0.0327249234749) : omega : 	0.0479126133149 : d : 	(-0.669580715876 -0.227292025657 0.707106781187)
	I82 : dAve : 	(-0.0335869903436 -0.00668086776241 0.0327249234749) : omega : 	0.0479126133149 : d : 	(-0.693519922661 -0.137949689641 0.707106781187)
	I83 : dAve : 	(-0.034171677215 -0.00223973005487 0.0327249234749) : omega : 	0.0479126133149 : d : 	(-0.70559281129 -0.0462469961895 0.707106781187)
	I84 : dAve : 	(-0.034171677215 0.00223973005487 0.0327249234749) : omega : 	0.0479126133149 : d : 	(-0.70559281129 0.0462469961895 0.707106781187)
	I85 : dAve : 	(-0.0335869903436 0.00668086776241 0.0327249234749) : omega : 	0.0479126133149 : d : 	(-0.693519922661 0.137949689641 0.707106781187)
	I86 : dAve : 	(-0.0324276207555 0.0110076939702 0.0327249234749) : omega : 	0.0479126133149 : d : 	(-0.669580715876 0.227292025657 0.707106781187)
	I87 : dAve : 	(-0.0307134055855 0.0151461754823 0.0327249234749) : omega : 	0.0479126133149 : d : 	(-0.634184797399 0.312745332096 0.707106781187)
	I88 : dAve : 	(-0.0284736755306 0.0190255017326 0.0327249234749) : omega : 	0.0479126133149 : d : 	(-0.58793780121 0.392847479194 0.707106781187)
	I89 : dAve : 	(-0.025746752993 0.0225792963734 0.0327249234749) : omega : 	0.0479126133149 : d : 	(-0.531631026234 0.466227897004 0.707106781187)
	I90 : dAve : 	(-0.0225792963734 0.025746752993 0.0327249234749) : omega : 	0.0479126133149 : d : 	(-0.466227897004 0.531631026234 0.707106781187)
	I91 : dAve : 	(-0.0190255017326 0.0284736755306 0.0327249234749) : omega : 	0.0479126133149 : d : 	(-0.392847479194 0.58793780121 0.707106781187)
	I92 : dAve : 	(-0.0151461754823 0.0307134055855 0.0327249234749) : omega : 	0.0479126133149 : d : 	(-0.312745332096 0.634184797399 0.707106781187)
	I93 : dAve : 	(-0.0110076939702 0.0324276207555 0.0327249234749) : omega : 	0.0479126133149 : d : 	(-0.227292025657 0.669580715876 0.707106781187)
	I94 : dAve : 	(-0.00668086776241 0.0335869903436 0.0327249234749) : omega : 	0.0479126133149 : d : 	(-0.137949689641 0.693519922661 0.707106781187)
	I95 : dAve : 	(-0.00223973005487 0.034171677215 0.0327249234749) : omega : 	0.0479126133149 : d : 	(-0.0462469961895 0.70559281129 0.707106781187)
	I96 : dAve : 	(0.00409197190067 0.0624314267954 0.0163624617374) : omega : 	0.0654498469498 : d : 	(0.0631745716435 0.963857704949 0.258819045103)
	I97 : dAve : 	(0.0122059009283 0.0613632077737 0.0163624617374) : omega : 	0.0654498469498 : d : 	(0.188442780494 0.947365832386 0.258819045103)
	I98 : dAve : 	(0.0201109836069 0.0592450472539 0.0163624617374) : omega : 	0.0654498469498 : d : 	(0.310486681125 0.914664267771 0.258819045103)
	I99 : dAve : 	(0.0276719617802 0.0561131875497 0.0163624617374) : omega : 	0.0654498469498 : d : 	(0.427218068558 0.866312543941 0.258819045103)
	I100 : dAve : 	(0.0347594650153 0.052021215649 0.0163624617374) : omega : 	0.0654498469498 : d : 	(0.536639636391 0.803137972298 0.258819045103)
	I101 : dAve : 	(0.0412522241668 0.0470391463256 0.0163624617374) : omega : 	0.0654498469498 : d : 	(0.636879151261 0.726221487276 0.258819045103)
	I102 : dAve : 	(0.0470391463256 0.0412522241668 0.0163624617374) : omega : 	0.0654498469498 : d : 	(0.726221487276 0.636879151261 0.258819045103)
	I103 : dAve : 	(0.052021215649 0.0347594650153 0.0163624617374) : omega : 	0.0654498469498 : d : 	(0.803137972298 0.536639636391 0.258819045103)
	I104 : dAve : 	(0.0561131875497 0.0276719617802 0.0163624617374) : omega : 	0.0654498469498 : d : 	(0.866312543941 0.427218068558 0.258819045103)
	I105 : dAve : 	(0.0592450472539 0.0201109836069 0.0163624617374) : omega : 	0.0654498469498 : d : 	(0.914664267771 0.310486681125 0.258819045103)
	I106 : dAve : 	(0.0613632077737 0.0122059009283 0.0163624617374) : omega : 	0.0654498469498 : d : 	(0.947365832386 0.188442780494 0.258819045103)
	I107 : dAve : 	(0.0624314267954 0.00409197190067 0.0163624617374) : omega : 	0.0654498469498 : d : 	(0.963857704949 0.0631745716435 0.258819045103)
	I108 : dAve : 	(0.0624314267954 -0.00409197190067 0.0163624617374) : omega : 	0.0654498469498 : d : 	(0.963857704949 -0.0631745716435 0.258819045103)
	I109 : dAve : 	(0.0613632077737 -0.0122059009283 0.0163624617374) : omega : 	0.0654498469498 : d : 	(0.947365832386 -0.188442780494 0.258819045103)
	I110 : dAve : 	(0.0592450472539 -0.0201109836069 0.0163624617374) : omega : 	0.0654498469498 : d : 	(0.914664267771 -0.310486681125 0.258819045103)
	I111 : dAve : 	(0.0561131875497 -0.0276719617802 0.0163624617374) : omega : 	0.0654498469498 : d : 	(0.866312543941 -0.427218068558 0.258819045103)
	I112 : dAve : 	(0.052021215649 -0.0347594650153 0.0163624617374) : omega : 	0.0654498469498 : d : 	(0.803137972298 -0.536639636391 0.258819045103)
	I113 : dAve : 	(0.0470391463256 -0.0412522241668 0.0163624617374) : omega : 	0.0654498469498 : d : 	(0.726221487276 -0.636879151261 0.258819045103)
	I114 : dAve : 	(0.0412522241668 -0.0470391463256 0.0163624617374) : omega : 	0.0654498469498 : d : 	(0.636879151261 -0.726221487276 0.258819045103)
	I115 : dAve : 	(0.0347594650153 -0.052021215649 0.0163624617374) : omega : 	0.0654498469498 : d : 	(0.536639636391 -0.803137972298 0.258819045103)
	I116 : dAve : 	(0.0276719617802 -0.0561131875497 0.0163624617374) : omega : 	0.0654498469498 : d : 	(0.427218068558 -0.866312543941 0.258819045103)
	I117 : dAve : 	(0.0201109836069 -0.0592450472539 0.0163624617374) : omega : 	0.0654498469498 : d : 	(0.310486681125 -0.914664267771 0.258819045103)
	I118 : dAve : 	(0.0122059009283 -0.0613632077737 0.0163624617374) : omega : 	0.0654498469498 : d : 	(0.188442780494 -0.947365832386 0.258819045103)
	I119 : dAve : 	(0.00409197190067 -0.0624314267954 0.0163624617374) : omega : 	0.0654498469498 : d : 	(0.0631745716435 -0.963857704949 0.258819045103)
	I120 : dAve : 	(-0.00409197190067 -0.0624314267954 0.0163624617374) : omega : 	0.0654498469498 : d : 	(-0.0631745716435 -0.963857704949 0.258819045103)
	I121 : dAve : 	(-0.0122059009283 -0.0613632077737 0.0163624617374) : omega : 	0.0654498469498 : d : 	(-0.188442780494 -0.947365832386 0.258819045103)
	I122 : dAve : 	(-0.0201109836069 -0.0592450472539 0.0163624617374) : omega : 	0.0654498469498 : d : 	(-0.310486681125 -0.914664267771 0.258819045103)
	I123 : dAve : 	(-0.0276719617802 -0.0561131875497 0.0163624617374) : omega : 	0.0654498469498 : d : 	(-0.427218068558 -0.866312543941 0.258819045103)
	I124 : dAve : 	(-0.0347594650153 -0.052021215649 0.0163624617374) : omega : 	0.0654498469498 : d : 	(-0.536639636391 -0.803137972298 0.258819045103)
	I125 : dAve : 	(-0.0412522241668 -0.0470391463256 0.0163624617374) : omega : 	0.0654498469498 : d : 	(-0.636879151261 -0.726221487276 0.258819045103)
	I126 : dAve : 	(-0.0470391463256 -0.0412522241668 0.0163624617374) : omega : 	0.0654498469498 : d : 	(-0.726221487276 -0.636879151261 0.258819045103)
	I127 : dAve : 	(-0.052021215649 -0.0347594650153 0.0163624617374) : omega : 	0.0654498469498 : d : 	(-0.803137972298 -0.536639636391 0.258819045103)
	I128 : dAve : 	(-0.0561131875497 -0.0276719617802 0.0163624617374) : omega : 	0.0654498469498 : d : 	(-0.866312543941 -0.427218068558 0.258819045103)
	I129 : dAve : 	(-0.0592450472539 -0.0201109836069 0.0163624617374) : omega : 	0.0654498469498 : d : 	(-0.914664267771 -0.310486681125 0.258819045103)
	I130 : dAve : 	(-0.0613632077737 -0.0122059009283 0.0163624617374) : omega : 	0.0654498469498 : d : 	(-0.947365832386 -0.188442780494 0.258819045103)
	I131 : dAve : 	(-0.0624314267954 -0.00409197190067 0.0163624617374) : omega : 	0.0654498469498 : d : 	(-0.963857704949 -0.0631745716435 0.258819045103)
	I132 : dAve : 	(-0.0624314267954 0.00409197190067 0.0163624617374) : omega : 	0.0654498469498 : d : 	(-0.963857704949 0.0631745716435 0.258819045103)
	I133 : dAve : 	(-0.0613632077737 0.0122059009283 0.0163624617374) : omega : 	0.0654498469498 : d : 	(-0.947365832386 0.188442780494 0.258819045103)
	I134 : dAve : 	(-0.0592450472539 0.0201109836069 0.0163624617374) : omega : 	0.0654498469498 : d : 	(-0.914664267771 0.310486681125 0.258819045103)
	I135 : dAve : 	(-0.0561131875497 0.0276719617802 0.0163624617374) : omega : 	0.0654498469498 : d : 	(-0.866312543941 0.427218068558 0.258819045103)
	I136 : dAve : 	(-0.052021215649 0.0347594650153 0.0163624617374) : omega : 	0.0654498469498 : d : 	(-0.803137972298 0.536639636391 0.258819045103)
	I137 : dAve : 	(-0.0470391463256 0.0412522241668 0.0163624617374) : omega : 	0.0654498469498 : d : 	(-0.726221487276 0.636879151261 0.258819045103)
	I138 : dAve : 	(-0.0412522241668 0.0470391463256 0.0163624617374) : omega : 	0.0654498469498 : d : 	(-0.636879151261 0.726221487276 0.258819045103)
	I139 : dAve : 	(-0.0347594650153 0.052021215649 0.0163624617374) : omega : 	0.0654498469498 : d : 	(-0.536639636391 0.803137972298 0.258819045103)
	I140 : dAve : 	(-0.0276719617802 0.0561131875497 0.0163624617374) : omega : 	0.0654498469498 : d : 	(-0.427218068558 0.866312543941 0.258819045103)
	I141 : dAve : 	(-0.0201109836069 0.0592450472539 0.0163624617374) : omega : 	0.0654498469498 : d : 	(-0.310486681125 0.914664267771 0.258819045103)
	I142 : dAve : 	(-0.0122059009283 0.0613632077737 0.0163624617374) : omega : 	0.0654498469498 : d : 	(-0.188442780494 0.947365832386 0.258819045103)
	I143 : dAve : 	(-0.00409197190067 0.0624314267954 0.0163624617374) : omega : 	0.0654498469498 : d : 	(-0.0631745716435 0.963857704949 0.258819045103)
	I144 : dAve : 	(0.00409197190067 0.0624314267954 -0.0163624617374) : omega : 	0.0654498469498 : d : 	(0.0631745716435 0.963857704949 -0.258819045103)
	I145 : dAve : 	(0.0122059009283 0.0613632077737 -0.0163624617374) : omega : 	0.0654498469498 : d : 	(0.188442780494 0.947365832386 -0.258819045103)
	I146 : dAve : 	(0.0201109836069 0.0592450472539 -0.0163624617374) : omega : 	0.0654498469498 : d : 	(0.310486681125 0.914664267771 -0.258819045103)
	I147 : dAve : 	(0.0276719617802 0.0561131875497 -0.0163624617374) : omega : 	0.0654498469498 : d : 	(0.427218068558 0.866312543941 -0.258819045103)
	I148 : dAve : 	(0.0347594650153 0.052021215649 -0.0163624617374) : omega : 	0.0654498469498 : d : 	(0.536639636391 0.803137972298 -0.258819045103)
	I149 : dAve : 	(0.0412522241668 0.0470391463256 -0.0163624617374) : omega : 	0.0654498469498 : d : 	(0.636879151261 0.726221487276 -0.258819045103)
	I150 : dAve : 	(0.0470391463256 0.0412522241668 -0.0163624617374) : omega : 	0.0654498469498 : d : 	(0.726221487276 0.636879151261 -0.258819045103)
	I151 : dAve : 	(0.052021215649 0.0347594650153 -0.0163624617374) : omega : 	0.0654498469498 : d : 	(0.803137972298 0.536639636391 -0.258819045103)
	I152 : dAve : 	(0.0561131875497 0.0276719617802 -0.0163624617374) : omega : 	0.0654498469498 : d : 	(0.866312543941 0.427218068558 -0.258819045103)
	I153 : dAve : 	(0.0592450472539 0.0201109836069 -0.0163624617374) : omega : 	0.0654498469498 : d : 	(0.914664267771 0.310486681125 -0.258819045103)
	I154 : dAve : 	(0.0613632077737 0.0122059009283 -0.0163624617374) : omega : 	0.0654498469498 : d : 	(0.947365832386 0.188442780494 -0.258819045103)
	I155 : dAve : 	(0.0624314267954 0.00409197190067 -0.0163624617374) : omega : 	0.0654498469498 : d : 	(0.963857704949 0.0631745716435 -0.258819045103)
	I156 : dAve : 	(0.0624314267954 -0.00409197190067 -0.0163624617374) : omega : 	0.0654498469498 : d : 	(0.963857704949 -0.0631745716435 -0.258819045103)
	I157 : dAve : 	(0.0613632077737 -0.0122059009283 -0.0163624617374) : omega : 	0.0654498469498 : d : 	(0.947365832386 -0.188442780494 -0.258819045103)
	I158 : dAve : 	(0.0592450472539 -0.0201109836069 -0.0163624617374) : omega : 	0.0654498469498 : d : 	(0.914664267771 -0.310486681125 -0.258819045103)
	I159 : dAve : 	(0.0561131875497 -0.0276719617802 -0.0163624617374) : omega : 	0.0654498469498 : d : 	(0.866312543941 -0.427218068558 -0.258819045103)
	I160 : dAve : 	(0.052021215649 -0.0347594650153 -0.0163624617374) : omega : 	0.0654498469498 : d : 	(0.803137972298 -0.536639636391 -0.258819045103)
	I161 : dAve : 	(0.0470391463256 -0.0412522241668 -0.0163624617374) : omega : 	0.0654498469498 : d : 	(0.726221487276 -0.636879151261 -0.258819045103)
	I162 : dAve : 	(0.0412522241668 -0.0470391463256 -0.0163624617374) : omega : 	0.0654498469498 : d : 	(0.636879151261 -0.726221487276 -0.258819045103)
	I163 : dAve : 	(0.0347594650153 -0.052021215649 -0.0163624617374) : omega : 	0.0654498469498 : d : 	(0.536639636391 -0.803137972298 -0.258819045103)
	I164 : dAve : 	(0.0276719617802 -0.0561131875497 -0.0163624617374) : omega : 	0.0654498469498 : d : 	(0.427218068558 -0.866312543941 -0.258819045103)
	I165 : dAve : 	(0.0201109836069 -0.0592450472539 -0.0163624617374) : omega : 	0.0654498469498 : d : 	(0.310486681125 -0.914664267771 -0.258819045103)
	I166 : dAve : 	(0.0122059009283 -0.0613632077737 -0.0163624617374) : omega : 	0.0654498469498 : d : 	(0.188442780494 -0.947365832386 -0.258819045103)
	I167 : dAve : 	(0.00409197190067 -0.0624314267954 -0.0163624617374) : omega : 	0.0654498469498 : d : 	(0.0631745716435 -0.963857704949 -0.258819045103)
	I168 : dAve : 	(-0.00409197190067 -0.0624314267954 -0.0163624617374) : omega : 	0.0654498469498 : d : 	(-0.0631745716435 -0.963857704949 -0.258819045103)
	I169 : dAve : 	(-0.0122059009283 -0.0613632077737 -0.0163624617374) : omega : 	0.0654498469498 : d : 	(-0.188442780494 -0.947365832386 -0.258819045103)
	I170 : dAve : 	(-0.0201109836069 -0.0592450472539 -0.0163624617374) : omega : 	0.0654498469498 : d : 	(-0.310486681125 -0.914664267771 -0.258819045103)
	I171 : dAve : 	(-0.0276719617802 -0.0561131875497 -0.0163624617374) : omega : 	0.0654498469498 : d : 	(-0.427218068558 -0.866312543941 -0.258819045103)
	I172 : dAve : 	(-0.0347594650153 -0.052021215649 -0.0163624617374) : omega : 	0.0654498469498 : d : 	(-0.536639636391 -0.803137972298 -0.258819045103)
	I173 : dAve : 	(-0.0412522241668 -0.0470391463256 -0.0163624617374) : omega : 	0.0654498469498 : d : 	(-0.636879151261 -0.726221487276 -0.258819045103)
	I174 : dAve : 	(-0.0470391463256 -0.0412522241668 -0.0163624617374) : omega : 	0.0654498469498 : d : 	(-0.726221487276 -0.636879151261 -0.258819045103)
	I175 : dAve : 	(-0.052021215649 -0.0347594650153 -0.0163624617374) : omega : 	0.0654498469498 : d : 	(-0.803137972298 -0.536639636391 -0.258819045103)
	I176 : dAve : 	(-0.0561131875497 -0.0276719617802 -0.0163624617374) : omega : 	0.0654498469498 : d : 	(-0.866312543941 -0.427218068558 -0.258819045103)
	I177 : dAve : 	(-0.0592450472539 -0.0201109836069 -0.0163624617374) : omega : 	0.0654498469498 : d : 	(-0.914664267771 -0.310486681125 -0.258819045103)
	I178 : dAve : 	(-0.0613632077737 -0.0122059009283 -0.0163624617374) : omega : 	0.0654498469498 : d : 	(-0.947365832386 -0.188442780494 -0.258819045103)
	I179 : dAve : 	(-0.0624314267954 -0.00409197190067 -0.0163624617374) : omega : 	0.0654498469498 : d : 	(-0.963857704949 -0.0631745716435 -0.258819045103)
	I180 : dAve : 	(-0.0624314267954 0.00409197190067 -0.0163624617374) : omega : 	0.0654498469498 : d : 	(-0.963857704949 0.0631745716435 -0.258819045103)
	I181 : dAve : 	(-0.0613632077737 0.0122059009283 -0.0163624617374) : omega : 	0.0654498469498 : d : 	(-0.947365832386 0.188442780494 -0.258819045103)
	I182 : dAve : 	(-0.0592450472539 0.0201109836069 -0.0163624617374) : omega : 	0.0654498469498 : d : 	(-0.914664267771 0.310486681125 -0.258819045103)
	I183 : dAve : 	(-0.0561131875497 0.0276719617802 -0.0163624617374) : omega : 	0.0654498469498 : d : 	(-0.866312543941 0.427218068558 -0.258819045103)
	I184 : dAve : 	(-0.052021215649 0.0347594650153 -0.0163624617374) : omega : 	0.0654498469498 : d : 	(-0.803137972298 0.536639636391 -0.258819045103)
	I185 : dAve : 	(-0.0470391463256 0.0412522241668 -0.0163624617374) : omega : 	0.0654498469498 : d : 	(-0.726221487276 0.636879151261 -0.258819045103)
	I186 : dAve : 	(-0.0412522241668 0.0470391463256 -0.0163624617374) : omega : 	0.0654498469498 : d : 	(-0.636879151261 0.726221487276 -0.258819045103)
	I187 : dAve : 	(-0.0347594650153 0.052021215649 -0.0163624617374) : omega : 	0.0654498469498 : d : 	(-0.536639636391 0.803137972298 -0.258819045103)
	I188 : dAve : 	(-0.0276719617802 0.0561131875497 -0.0163624617374) : omega : 	0.0654498469498 : d : 	(-0.427218068558 0.866312543941 -0.258819045103)
	I189 : dAve : 	(-0.0201109836069 0.0592450472539 -0.0163624617374) : omega : 	0.0654498469498 : d : 	(-0.310486681125 0.914664267771 -0.258819045103)
	I190 : dAve : 	(-0.0122059009283 0.0613632077737 -0.0163624617374) : omega : 	0.0654498469498 : d : 	(-0.188442780494 0.947365832386 -0.258819045103)
	I191 : dAve : 	(-0.00409197190067 0.0624314267954 -0.0163624617374) : omega : 	0.0654498469498 : d : 	(-0.0631745716435 0.963857704949 -0.258819045103)
	I192 : dAve : 	(0.00223973005487 0.034171677215 -0.0327249234749) : omega : 	0.0479126133149 : d : 	(0.0462469961895 0.70559281129 -0.707106781187)
	I193 : dAve : 	(0.00668086776241 0.0335869903436 -0.0327249234749) : omega : 	0.0479126133149 : d : 	(0.137949689641 0.693519922661 -0.707106781187)
	I194 : dAve : 	(0.0110076939702 0.0324276207555 -0.0327249234749) : omega : 	0.0479126133149 : d : 	(0.227292025657 0.669580715876 -0.707106781187)
	I195 : dAve : 	(0.0151461754823 0.0307134055855 -0.0327249234749) : omega : 	0.0479126133149 : d : 	(0.312745332096 0.634184797399 -0.707106781187)
	I196 : dAve : 	(0.0190255017326 0.0284736755306 -0.0327249234749) : omega : 	0.0479126133149 : d : 	(0.392847479194 0.58793780121 -0.707106781187)
	I197 : dAve : 	(0.0225792963734 0.025746752993 -0.0327249234749) : omega : 	0.0479126133149 : d : 	(0.466227897004 0.531631026234 -0.707106781187)
	I198 : dAve : 	(0.025746752993 0.0225792963734 -0.0327249234749) : omega : 	0.0479126133149 : d : 	(0.531631026234 0.466227897004 -0.707106781187)
	I199 : dAve : 	(0.0284736755306 0.0190255017326 -0.0327249234749) : omega : 	0.0479126133149 : d : 	(0.58793780121 0.392847479194 -0.707106781187)
	I200 : dAve : 	(0.0307134055855 0.0151461754823 -0.0327249234749) : omega : 	0.0479126133149 : d : 	(0.634184797399 0.312745332096 -0.707106781187)
	I201 : dAve : 	(0.0324276207555 0.0110076939702 -0.0327249234749) : omega : 	0.0479126133149 : d : 	(0.669580715876 0.227292025657 -0.707106781187)
	I202 : dAve : 	(0.0335869903436 0.00668086776241 -0.0327249234749) : omega : 	0.0479126133149 : d : 	(0.693519922661 0.137949689641 -0.707106781187)
	I203 : dAve : 	(0.034171677215 0.00223973005487 -0.0327249234749) : omega : 	0.0479126133149 : d : 	(0.70559281129 0.0462469961895 -0.707106781187)
	I204 : dAve : 	(0.034171677215 -0.00223973005487 -0.0327249234749) : omega : 	0.0479126133149 : d : 	(0.70559281129 -0.0462469961895 -0.707106781187)
	I205 : dAve : 	(0.0335869903436 -0.00668086776241 -0.0327249234749) : omega : 	0.0479126133149 : d : 	(0.693519922661 -0.137949689641 -0.707106781187)
	I206 : dAve : 	(0.0324276207555 -0.0110076939702 -0.0327249234749) : omega : 	0.0479126133149 : d : 	(0.669580715876 -0.227292025657 -0.707106781187)
	I207 : dAve : 	(0.0307134055855 -0.0151461754823 -0.0327249234749) : omega : 	0.0479126133149 : d : 	(0.634184797399 -0.312745332096 -0.707106781187)
	I208 : dAve : 	(0.0284736755306 -0.0190255017326 -0.0327249234749) : omega : 	0.0479126133149 : d : 	(0.58793780121 -0.392847479194 -0.707106781187)
	I209 : dAve : 	(0.025746752993 -0.0225792963734 -0.0327249234749) : omega : 	0.0479126133149 : d : 	(0.531631026234 -0.466227897004 -0.707106781187)
	I210 : dAve : 	(0.0225792963734 -0.025746752993 -0.0327249234749) : omega : 	0.0479126133149 : d : 	(0.466227897004 -0.531631026234 -0.707106781187)
	I211 : dAve : 	(0.0190255017326 -0.0284736755306 -0.0327249234749) : omega : 	0.0479126133149 : d : 	(0.392847479194 -0.58793780121 -0.707106781187)
	I212 : dAve : 	(0.0151461754823 -0.0307134055855 -0.0327249234749) : omega : 	0.0479126133149 : d : 	(0.312745332096 -0.634184797399 -0.707106781187)
	I213 : dAve : 	(0.0110076939702 -0.0324276207555 -0.0327249234749) : omega : 	0.0479126133149 : d : 	(0.227292025657 -0.669580715876 -0.707106781187)
	I214 : dAve : 	(0.00668086776241 -0.0335869903436 -0.0327249234749) : omega : 	0.0479126133149 : d : 	(0.137949689641 -0.693519922661 -0.707106781187)
	I215 : dAve : 	(0.00223973005487 -0.034171677215 -0.0327249234749) : omega : 	0.0479126133149 : d : 	(0.0462469961895 -0.70559281129 -0.707106781187)
	I216 : dAve : 	(-0.00223973005487 -0.034171677215 -0.0327249234749) : omega : 	0.0479126133149 : d : 	(-0.0462469961895 -0.70559281129 -0.707106781187)
	I217 : dAve : 	(-0.00668086776241 -0.0335869903436 -0.0327249234749) : omega : 	0.0479126133149 : d : 	(-0.137949689641 -0.693519922661 -0.707106781187)
	I218 : dAve : 	(-0.0110076939702 -0.0324276207555 -0.0327249234749) : omega : 	0.0479126133149 : d : 	(-0.227292025657 -0.669580715876 -0.707106781187)
	I219 : dAve : 	(-0.0151461754823 -0.0307134055855 -0.0327249234749) : omega : 	0.0479126133149 : d : 	(-0.312745332096 -0.634184797399 -0.707106781187)
	I220 : dAve : 	(-0.0190255017326 -0.0284736755306 -0.0327249234749) : omega : 	0.0479126133149 : d : 	(-0.392847479194 -0.58793780121 -0.707106781187)
	I221 : dAve : 	(-0.0225792963734 -0.025746752993 -0.0327249234749) : omega : 	0.0479126133149 : d : 	(-0.466227897004 -0.531631026234 -0.707106781187)
	I222 : dAve : 	(-0.025746752993 -0.0225792963734 -0.0327249234749) : omega : 	0.0479126133149 : d : 	(-0.531631026234 -0.466227897004 -0.707106781187)
	I223 : dAve : 	(-0.0284736755306 -0.0190255017326 -0.0327249234749) : omega : 	0.0479126133149 : d : 	(-0.58793780121 -0.392847479194 -0.707106781187)
	I224 : dAve : 	(-0.0307134055855 -0.0151461754823 -0.0327249234749) : omega : 	0.0479126133149 : d : 	(-0.634184797399 -0.312745332096 -0.707106781187)
	I225 : dAve : 	(-0.0324276207555 -0.0110076939702 -0.0327249234749) : omega : 	0.0479126133149 : d : 	(-0.669580715876 -0.227292025657 -0.707106781187)
	I226 : dAve : 	(-0.0335869903436 -0.00668086776241 -0.0327249234749) : omega : 	0.0479126133149 : d : 	(-0.693519922661 -0.137949689641 -0.707106781187)
	I227 : dAve : 	(-0.034171677215 -0.00223973005487 -0.0327249234749) : omega : 	0.0479126133149 : d : 	(-0.70559281129 -0.0462469961895 -0.707106781187)
	I228 : dAve : 	(-0.034171677215 0.00223973005487 -0.0327249234749) : omega : 	0.0479126133149 : d : 	(-0.70559281129 0.0462469961895 -0.707106781187)
	I229 : dAve : 	(-0.0335869903436 0.00668086776241 -0.0327249234749) : omega : 	0.0479126133149 : d : 	(-0.693519922661 0.137949689641 -0.707106781187)
	I230 : dAve : 	(-0.0324276207555 0.0110076939702 -0.0327249234749) : omega : 	0.0479126133149 : d : 	(-0.669580715876 0.227292025657 -0.707106781187)
	I231 : dAve : 	(-0.0307134055855 0.0151461754823 -0.0327249234749) : omega : 	0.0479126133149 : d : 	(-0.634184797399 0.312745332096 -0.707106781187)
	I232 : dAve : 	(-0.0284736755306 0.0190255017326 -0.0327249234749) : omega : 	0.0479126133149 : d : 	(-0.58793780121 0.392847479194 -0.707106781187)
	I233 : dAve : 	(-0.025746752993 0.0225792963734 -0.0327249234749) : omega : 	0.0479126133149 : d : 	(-0.531631026234 0.466227897004 -0.707106781187)
	I234 : dAve : 	(-0.0225792963734 0.025746752993 -0.0327249234749) : omega : 	0.0479126133149 : d : 	(-0.466227897004 0.531631026234 -0.707106781187)
	I235 : dAve : 	(-0.0190255017326 0.0284736755306 -0.0327249234749) : omega : 	0.0479126133149 : d : 	(-0.392847479194 0.58793780121 -0.707106781187)
	I236 : dAve : 	(-0.0151461754823 0.0307134055855 -0.0327249234749) : omega : 	0.0479126133149 : d : 	(-0.312745332096 0.634184797399 -0.707106781187)
	I237 : dAve : 	(-0.0110076939702 0.0324276207555 -0.0327249234749) : omega : 	0.0479126133149 : d : 	(-0.227292025657 0.669580715876 -0.707106781187)
	I238 : dAve : 	(-0.00668086776241 0.0335869903436 -0.0327249234749) : omega : 	0.0479126133149 : d : 	(-0.137949689641 0.693519922661 -0.707106781187)
	I239 : dAve : 	(-0.00223973005487 0.034171677215 -0.0327249234749) : omega : 	0.0479126133149 : d : 	(-0.0462469961895 0.70559281129 -0.707106781187)
	I240 : dAve : 	(0.000387488209079 0.00591192763451 -0.0163624617374) : omega : 	0.0175372336349 : d : 	(0.0169275754541 0.25826489366 -0.965925826289)
	I241 : dAve : 	(0.00115583459655 0.00581077291359 -0.0163624617374) : omega : 	0.0175372336349 : d : 	(0.050493090853 0.253845909725 -0.965925826289)
	I242 : dAve : 	(0.00190440433361 0.00561019425706 -0.0163624617374) : omega : 	0.0175372336349 : d : 	(0.083194655468 0.245083551895 -0.965925826289)
	I243 : dAve : 	(0.00262038918453 0.00531362362136 -0.0163624617374) : omega : 	0.0175372336349 : d : 	(0.114472736462 0.232127746542 -0.965925826289)
	I244 : dAve : 	(0.00329153844998 0.00492613541228 -0.0163624617374) : omega : 	0.0175372336349 : d : 	(0.143792157198 0.215200171088 -0.965925826289)
	I245 : dAve : 	(0.00390636857998 0.00445435966052 -0.0163624617374) : omega : 	0.0175372336349 : d : 	(0.170651254257 0.194590461042 -0.965925826289)
	I246 : dAve : 	(0.00445435966052 0.00390636857998 -0.0163624617374) : omega : 	0.0175372336349 : d : 	(0.194590461042 0.170651254257 -0.965925826289)
	I247 : dAve : 	(0.00492613541228 0.00329153844998 -0.0163624617374) : omega : 	0.0175372336349 : d : 	(0.215200171088 0.143792157198 -0.965925826289)
	I248 : dAve : 	(0.00531362362136 0.00262038918453 -0.0163624617374) : omega : 	0.0175372336349 : d : 	(0.232127746542 0.114472736462 -0.965925826289)
	I249 : dAve : 	(0.00561019425706 0.00190440433361 -0.0163624617374) : omega : 	0.0175372336349 : d : 	(0.245083551895 0.083194655468 -0.965925826289)
	I250 : dAve : 	(0.00581077291359 0.00115583459655 -0.0163624617374) : omega : 	0.0175372336349 : d : 	(0.253845909725 0.050493090853 -0.965925826289)
	I251 : dAve : 	(0.00591192763451 0.000387488209079 -0.0163624617374) : omega : 	0.0175372336349 : d : 	(0.25826489366 0.0169275754541 -0.965925826289)
	I252 : dAve : 	(0.00591192763451 -0.000387488209079 -0.0163624617374) : omega : 	0.0175372336349 : d : 	(0.25826489366 -0.0169275754541 -0.965925826289)
	I253 : dAve : 	(0.00581077291359 -0.00115583459655 -0.0163624617374) : omega : 	0.0175372336349 : d : 	(0.253845909725 -0.050493090853 -0.965925826289)
	I254 : dAve : 	(0.00561019425706 -0.00190440433361 -0.0163624617374) : omega : 	0.0175372336349 : d : 	(0.245083551895 -0.083194655468 -0.965925826289)
	I255 : dAve : 	(0.00531362362136 -0.00262038918453 -0.0163624617374) : omega : 	0.0175372336349 : d : 	(0.232127746542 -0.114472736462 -0.965925826289)
	I256 : dAve : 	(0.00492613541228 -0.00329153844998 -0.0163624617374) : omega : 	0.0175372336349 : d : 	(0.215200171088 -0.143792157198 -0.965925826289)
	I257 : dAve : 	(0.00445435966052 -0.00390636857998 -0.0163624617374) : omega : 	0.0175372336349 : d : 	(0.194590461042 -0.170651254257 -0.965925826289)
	I258 : dAve : 	(0.00390636857998 -0.00445435966052 -0.0163624617374) : omega : 	0.0175372336349 : d : 	(0.170651254257 -0.194590461042 -0.965925826289)
	I259 : dAve : 	(0.00329153844998 -0.00492613541228 -0.0163624617374) : omega : 	0.0175372336349 : d : 	(0.143792157198 -0.215200171088 -0.965925826289)
	I260 : dAve : 	(0.00262038918453 -0.00531362362136 -0.0163624617374) : omega : 	0.0175372336349 : d : 	(0.114472736462 -0.232127746542 -0.965925826289)
	I261 : dAve : 	(0.00190440433361 -0.00561019425706 -0.0163624617374) : omega : 	0.0175372336349 : d : 	(0.083194655468 -0.245083551895 -0.965925826289)
	I262 : dAve : 	(0.00115583459655 -0.00581077291359 -0.0163624617374) : omega : 	0.0175372336349 : d : 	(0.050493090853 -0.253845909725 -0.965925826289)
	I263 : dAve : 	(0.000387488209079 -0.00591192763451 -0.0163624617374) : omega : 	0.0175372336349 : d : 	(0.0169275754541 -0.25826489366 -0.965925826289)
	I264 : dAve : 	(-0.000387488209079 -0.00591192763451 -0.0163624617374) : omega : 	0.0175372336349 : d : 	(-0.0169275754541 -0.25826489366 -0.965925826289)
	I265 : dAve : 	(-0.00115583459655 -0.00581077291359 -0.0163624617374) : omega : 	0.0175372336349 : d : 	(-0.050493090853 -0.253845909725 -0.965925826289)
	I266 : dAve : 	(-0.00190440433361 -0.00561019425706 -0.0163624617374) : omega : 	0.0175372336349 : d : 	(-0.083194655468 -0.245083551895 -0.965925826289)
	I267 : dAve : 	(-0.00262038918453 -0.00531362362136 -0.0163624617374) : omega : 	0.0175372336349 : d : 	(-0.114472736462 -0.232127746542 -0.965925826289)
	I268 : dAve : 	(-0.00329153844998 -0.00492613541228 -0.0163624617374) : omega : 	0.0175372336349 : d : 	(-0.143792157198 -0.215200171088 -0.965925826289)
	I269 : dAve : 	(-0.00390636857998 -0.00445435966052 -0.0163624617374) : omega : 	0.0175372336349 : d : 	(-0.170651254257 -0.194590461042 -0.965925826289)
	I270 : dAve : 	(-0.00445435966052 -0.00390636857998 -0.0163624617374) : omega : 	0.0175372336349 : d : 	(-0.194590461042 -0.170651254257 -0.965925826289)
	I271 : dAve : 	(-0.00492613541228 -0.00329153844998 -0.0163624617374) : omega : 	0.0175372336349 : d : 	(-0.215200171088 -0.143792157198 -0.965925826289)
	I272 : dAve : 	(-0.00531362362136 -0.00262038918453 -0.0163624617374) : omega : 	0.0175372336349 : d : 	(-0.232127746542 -0.114472736462 -0.965925826289)
	I273 : dAve : 	(-0.00561019425706 -0.00190440433361 -0.0163624617374) : omega : 	0.0175372336349 : d : 	(-0.245083551895 -0.083194655468 -0.965925826289)
	I274 : dAve : 	(-0.00581077291359 -0.00115583459655 -0.0163624617374) : omega : 	0.0175372336349 : d : 	(-0.253845909725 -0.050493090853 -0.965925826289)
	I275 : dAve : 	(-0.00591192763451 -0.000387488209079 -0.0163624617374) : omega : 	0.0175372336349 : d : 	(-0.25826489366 -0.0169275754541 -0.965925826289)
	I276 : dAve : 	(-0.00591192763451 0.000387488209079 -0.0163624617374) : omega : 	0.0175372336349 : d : 	(-0.25826489366 0.0169275754541 -0.965925826289)
	I277 : dAve : 	(-0.00581077291359 0.00115583459655 -0.0163624617374) : omega : 	0.0175372336349 : d : 	(-0.253845909725 0.050493090853 -0.965925826289)
	I278 : dAve : 	(-0.00561019425706 0.00190440433361 -0.0163624617374) : omega : 	0.0175372336349 : d : 	(-0.245083551895 0.083194655468 -0.965925826289)
	I279 : dAve : 	(-0.00531362362136 0.00262038918453 -0.0163624617374) : omega : 	0.0175372336349 : d : 	(-0.232127746542 0.114472736462 -0.965925826289)
	I280 : dAve : 	(-0.00492613541228 0.00329153844998 -0.0163624617374) : omega : 	0.0175372336349 : d : 	(-0.215200171088 0.143792157198 -0.965925826289)
	I281 : dAve : 	(-0.00445435966052 0.00390636857998 -0.0163624617374) : omega : 	0.0175372336349 : d : 	(-0.194590461042 0.170651254257 -0.965925826289)
	I282 : dAve : 	(-0.00390636857998 0.00445435966052 -0.0163624617374) : omega : 	0.0175372336349 : d : 	(-0.170651254257 0.194590461042 -0.965925826289)
	I283 : dAve : 	(-0.00329153844998 0.00492613541228 -0.0163624617374) : omega : 	0.0175372336349 : d : 	(-0.143792157198 0.215200171088 -0.965925826289)
	I284 : dAve : 	(-0.00262038918453 0.00531362362136 -0.0163624617374) : omega : 	0.0175372336349 : d : 	(-0.114472736462 0.232127746542 -0.965925826289)
	I285 : dAve : 	(-0.00190440433361 0.00561019425706 -0.0163624617374) : omega : 	0.0175372336349 : d : 	(-0.083194655468 0.245083551895 -0.965925826289)
	I286 : dAve : 	(-0.00115583459655 0.00581077291359 -0.0163624617374) : omega : 	0.0175372336349 : d : 	(-0.050493090853 0.253845909725 -0.965925826289)
	I287 : dAve : 	(-0.000387488209079 0.00591192763451 -0.0163624617374) : omega : 	0.0175372336349 : d : 	(-0.0169275754541 0.25826489366 -0.965925826289)
Total omega : 12.5663706144

Courant Number mean: 0 max: 0

Starting time loop

Sampled set:
    data -> csv

Sampled set:
    data -> csv

Sampled surface:
    yNormal -> ensight
        sampledCuttingPlane: yNormal : plane:(0 1 0) (0 0 0) offsets:(0)

Sampled surface:
    zNormal -> ensight
        sampledCuttingPlane: zNormal : plane:(0 0 1) (0 0 0) offsets:(0)

Sampled surface:
    patchAll -> ensight
        sampledPatch: patchAll : patches:(".*WW.*")

deltaT = 1
Time = 1

PIMPLE: iteration 1
Radiation solver iter: 0
DILUPBiCGStab:  Solving for ILambda_0_0, Initial residual = 1, Final residual = 1.61079503655e-75, No Iterations 3
DILUPBiCGStab:  Solving for ILambda_1_0, Initial residual = 1, Final residual = 8.7546347348e-75, No Iterations 3
DILUPBiCGStab:  Solving for ILambda_2_0, Initial residual = 1, Final residual = 1.59859546617e-74, No Iterations 3
DILUPBiCGStab:  Solving for ILambda_3_0, Initial residual = 1, Final residual = 2.02652632912e-74, No Iterations 3
DILUPBiCGStab:  Solving for ILambda_4_0, Initial residual = 1, Final residual = 2.83598817089e-74, No Iterations 3
DILUPBiCGStab:  Solving for ILambda_5_0, Initial residual = 1, Final residual = 2.81190859597e-74, No Iterations 3
DILUPBiCGStab:  Solving for ILambda_6_0, Initial residual = 1, Final residual = 1.34436125521e-73, No Iterations 3
DILUPBiCGStab:  Solving for ILambda_7_0, Initial residual = 1, Final residual = 7.446644924e-74, No Iterations 3
DILUPBiCGStab:  Solving for ILambda_8_0, Initial residual = 1, Final residual = 1.26952557375e-74, No Iterations 3
DILUPBiCGStab:  Solving for ILambda_9_0, Initial residual = 1, Final residual = 4.87249549701e-74, No Iterations 3
DILUPBiCGStab:  Solving for ILambda_10_0, Initial residual = 1, Final residual = 8.23958914436e-75, No Iterations 3
DILUPBiCGStab:  Solving for ILambda_11_0, Initial residual = 1, Final residual = 6.29802985419e-75, No Iterations 3
DILUPBiCGStab:  Solving for ILambda_12_0, Initial residual = 1, Final residual = 5.77895928258e-62, No Iterations 46
DILUPBiCGStab:  Solving for ILambda_13_0, Initial residual = 1, Final residual = 9.51030885446e-61, No Iterations 70
DILUPBiCGStab:  Solving for ILambda_14_0, Initial residual = 1, Final residual = 3.92697195846e-61, No Iterations 84
DILUPBiCGStab:  Solving for ILambda_15_0, Initial residual = 1, Final residual = 6.54133722634e-61, No Iterations 95
DILUPBiCGStab:  Solving for ILambda_16_0, Initial residual = 1, Final residual = 5.74358523351e-61, No Iterations 97
DILUPBiCGStab:  Solving for ILambda_17_0, Initial residual = 1, Final residual = 3.13473347734e-61, No Iterations 97
DILUPBiCGStab:  Solving for ILambda_18_0, Initial residual = 1, Final residual = 3.24573932362e-61, No Iterations 97
DILUPBiCGStab:  Solving for ILambda_19_0, Initial residual = 1, Final residual = 2.89303319015e-61, No Iterations 97
DILUPBiCGStab:  Solving for ILambda_20_0, Initial residual = 1, Final residual = 2.92082134703e-61, No Iterations 95
DILUPBiCGStab:  Solving for ILambda_21_0, Initial residual = 1, Final residual = 1.10052181294e-61, No Iterations 85
DILUPBiCGStab:  Solving for ILambda_22_0, Initial residual = 1, Final residual = 2.16294027607e-61, No Iterations 68
DILUPBiCGStab:  Solving for ILambda_23_0, Initial residual = 1, Final residual = 2.06626342922e-61, No Iterations 45
DILUPBiCGStab:  Solving for ILambda_24_0, Initial residual = 1, Final residual = 2.57737232258e-61, No Iterations 30
DILUPBiCGStab:  Solving for ILambda_25_0, Initial residual = 1, Final residual = 3.15670171869e-61, No Iterations 29
DILUPBiCGStab:  Solving for ILambda_26_0, Initial residual = 1, Final residual = 8.66483081994e-62, No Iterations 30
DILUPBiCGStab:  Solving for ILambda_27_0, Initial residual = 1, Final residual = 9.31481883321e-62, No Iterations 31
DILUPBiCGStab:  Solving for ILambda_28_0, Initial residual = 1, Final residual = 9.77113615355e-61, No Iterations 31
DILUPBiCGStab:  Solving for ILambda_29_0, Initial residual = 1, Final residual = 7.98631463578e-61, No Iterations 31
DILUPBiCGStab:  Solving for ILambda_30_0, Initial residual = 1, Final residual = 1.28718511012e-61, No Iterations 31
DILUPBiCGStab:  Solving for ILambda_31_0, Initial residual = 1, Final residual = 2.14664341089e-61, No Iterations 31
DILUPBiCGStab:  Solving for ILambda_32_0, Initial residual = 1, Final residual = 7.97814666718e-62, No Iterations 31
DILUPBiCGStab:  Solving for ILambda_33_0, Initial residual = 1, Final residual = 7.71683638728e-62, No Iterations 30
DILUPBiCGStab:  Solving for ILambda_34_0, Initial residual = 1, Final residual = 2.98380493783e-61, No Iterations 29
DILUPBiCGStab:  Solving for ILambda_35_0, Initial residual = 1, Final residual = 3.36438448307e-61, No Iterations 29
DILUPBiCGStab:  Solving for ILambda_36_0, Initial residual = 1, Final residual = 8.99001175498e-61, No Iterations 44
DILUPBiCGStab:  Solving for ILambda_37_0, Initial residual = 1, Final residual = 7.05213384523e-61, No Iterations 67
DILUPBiCGStab:  Solving for ILambda_38_0, Initial residual = 1, Final residual = 8.48640150944e-61, No Iterations 83
DILUPBiCGStab:  Solving for ILambda_39_0, Initial residual = 1, Final residual = 7.69378653843e-61, No Iterations 95
DILUPBiCGStab:  Solving for ILambda_40_0, Initial residual = 1, Final residual = 2.45211288392e-61, No Iterations 97
DILUPBiCGStab:  Solving for ILambda_41_0, Initial residual = 1, Final residual = 9.26969413128e-61, No Iterations 99
DILUPBiCGStab:  Solving for ILambda_42_0, Initial residual = 1, Final residual = 5.14950152466e-61, No Iterations 96
DILUPBiCGStab:  Solving for ILambda_43_0, Initial residual = 1, Final residual = 2.34350154151e-61, No Iterations 98
DILUPBiCGStab:  Solving for ILambda_44_0, Initial residual = 1, Final residual = 3.05826081276e-61, No Iterations 93
DILUPBiCGStab:  Solving for ILambda_45_0, Initial residual = 1, Final residual = 2.31756517478e-61, No Iterations 85
DILUPBiCGStab:  Solving for ILambda_46_0, Initial residual = 1, Final residual = 6.39821075132e-61, No Iterations 69
DILUPBiCGStab:  Solving for ILambda_47_0, Initial residual = 1, Final residual = 7.25907701171e-61, No Iterations 46
DILUPBiCGStab:  Solving for ILambda_48_0, Initial residual = 1, Final residual = 1.64132713633e-73, No Iterations 3
DILUPBiCGStab:  Solving for ILambda_49_0, Initial residual = 1, Final residual = 6.96711885428e-74, No Iterations 3
DILUPBiCGStab:  Solving for ILambda_50_0, Initial residual = 1, Final residual = 6.73819984793e-72, No Iterations 3
DILUPBiCGStab:  Solving for ILambda_51_0, Initial residual = 1, Final residual = 5.3090449088e-73, No Iterations 3
DILUPBiCGStab:  Solving for ILambda_52_0, Initial residual = 1, Final residual = 9.14082111408e-74, No Iterations 3
DILUPBiCGStab:  Solving for ILambda_53_0, Initial residual = 1, Final residual = 3.46613044363e-72, No Iterations 3
DILUPBiCGStab:  Solving for ILambda_54_0, Initial residual = 1, Final residual = 8.67237704686e-73, No Iterations 3
DILUPBiCGStab:  Solving for ILambda_55_0, Initial residual = 1, Final residual = 6.67233441919e-74, No Iterations 3
DILUPBiCGStab:  Solving for ILambda_56_0, Initial residual = 1, Final residual = 2.223745032e-73, No Iterations 3
DILUPBiCGStab:  Solving for ILambda_57_0, Initial residual = 1, Final residual = 1.0501633163e-73, No Iterations 3
DILUPBiCGStab:  Solving for ILambda_58_0, Initial residual = 1, Final residual = 1.73465849053e-73, No Iterations 3
DILUPBiCGStab:  Solving for ILambda_59_0, Initial residual = 1, Final residual = 2.79604354353e-73, No Iterations 3
DILUPBiCGStab:  Solving for ILambda_60_0, Initial residual = 1, Final residual = 5.19088258254e-61, No Iterations 47
DILUPBiCGStab:  Solving for ILambda_61_0, Initial residual = 1, Final residual = 5.08801214324e-61, No Iterations 70
DILUPBiCGStab:  Solving for ILambda_62_0, Initial residual = 1, Final residual = 7.79474848045e-61, No Iterations 85
DILUPBiCGStab:  Solving for ILambda_63_0, Initial residual = 1, Final residual = 8.44095264229e-61, No Iterations 98
DILUPBiCGStab:  Solving for ILambda_64_0, Initial residual = 1, Final residual = 5.91133706987e-61, No Iterations 101
DILUPBiCGStab:  Solving for ILambda_65_0, Initial residual = 1, Final residual = 4.40626084531e-61, No Iterations 103
DILUPBiCGStab:  Solving for ILambda_66_0, Initial residual = 1, Final residual = 2.86701276883e-61, No Iterations 105
DILUPBiCGStab:  Solving for ILambda_67_0, Initial residual = 1, Final residual = 4.08333493621e-61, No Iterations 102
DILUPBiCGStab:  Solving for ILambda_68_0, Initial residual = 1, Final residual = 7.59255865666e-61, No Iterations 96
DILUPBiCGStab:  Solving for ILambda_69_0, Initial residual = 1, Final residual = 8.01614673844e-61, No Iterations 85
DILUPBiCGStab:  Solving for ILambda_70_0, Initial residual = 1, Final residual = 3.05643011082e-61, No Iterations 66
DILUPBiCGStab:  Solving for ILambda_71_0, Initial residual = 1, Final residual = 9.31432251024e-61, No Iterations 46
DILUPBiCGStab:  Solving for ILambda_72_0, Initial residual = 1, Final residual = 1.05920916613e-61, No Iterations 34
DILUPBiCGStab:  Solving for ILambda_73_0, Initial residual = 1, Final residual = 7.81881894001e-61, No Iterations 36
DILUPBiCGStab:  Solving for ILambda_74_0, Initial residual = 1, Final residual = 1.7893997584e-62, No Iterations 37
DILUPBiCGStab:  Solving for ILambda_75_0, Initial residual = 1, Final residual = 4.62800165467e-61, No Iterations 37
DILUPBiCGStab:  Solving for ILambda_76_0, Initial residual = 1, Final residual = 3.433053701e-61, No Iterations 37
DILUPBiCGStab:  Solving for ILambda_77_0, Initial residual = 1, Final residual = 2.23715220513e-61, No Iterations 39
DILUPBiCGStab:  Solving for ILambda_78_0, Initial residual = 1, Final residual = 9.66945061245e-61, No Iterations 40
DILUPBiCGStab:  Solving for ILambda_79_0, Initial residual = 1, Final residual = 6.42276398518e-61, No Iterations 42
DILUPBiCGStab:  Solving for ILambda_80_0, Initial residual = 1, Final residual = 1.76377259402e-61, No Iterations 37
DILUPBiCGStab:  Solving for ILambda_81_0, Initial residual = 1, Final residual = 8.17944971471e-61, No Iterations 38
DILUPBiCGStab:  Solving for ILambda_82_0, Initial residual = 1, Final residual = 2.05371361723e-61, No Iterations 38
DILUPBiCGStab:  Solving for ILambda_83_0, Initial residual = 1, Final residual = 3.92775239585e-61, No Iterations 35
DILUPBiCGStab:  Solving for ILambda_84_0, Initial residual = 1, Final residual = 5.80541360945e-61, No Iterations 46
DILUPBiCGStab:  Solving for ILambda_85_0, Initial residual = 1, Final residual = 1.6943349637e-61, No Iterations 67
DILUPBiCGStab:  Solving for ILambda_86_0, Initial residual = 1, Final residual = 2.95343067791e-61, No Iterations 84
DILUPBiCGStab:  Solving for ILambda_87_0, Initial residual = 1, Final residual = 5.64821235024e-61, No Iterations 96
DILUPBiCGStab:  Solving for ILambda_88_0, Initial residual = 1, Final residual = 2.92615664868e-61, No Iterations 101
DILUPBiCGStab:  Solving for ILambda_89_0, Initial residual = 1, Final residual = 3.51410309779e-61, No Iterations 104
DILUPBiCGStab:  Solving for ILambda_90_0, Initial residual = 1, Final residual = 6.77438924741e-61, No Iterations 101
DILUPBiCGStab:  Solving for ILambda_91_0, Initial residual = 1, Final residual = 8.59506766428e-61, No Iterations 101
DILUPBiCGStab:  Solving for ILambda_92_0, Initial residual = 1, Final residual = 3.23186914279e-61, No Iterations 98
DILUPBiCGStab:  Solving for ILambda_93_0, Initial residual = 1, Final residual = 9.43848606824e-61, No Iterations 85
DILUPBiCGStab:  Solving for ILambda_94_0, Initial residual = 1, Final residual = 8.87676678958e-61, No Iterations 70
DILUPBiCGStab:  Solving for ILambda_95_0, Initial residual = 1, Final residual = 4.8706201639e-61, No Iterations 48
DILUPBiCGStab:  Solving for ILambda_96_0, Initial residual = 1, Final residual = 1.0591396715e-72, No Iterations 3
DILUPBiCGStab:  Solving for ILambda_97_0, Initial residual = 1, Final residual = 1.57860175538e-73, No Iterations 3
DILUPBiCGStab:  Solving for ILambda_98_0, Initial residual = 1, Final residual = 1.11685800632e-72, No Iterations 3
DILUPBiCGStab:  Solving for ILambda_99_0, Initial residual = 1, Final residual = 5.08533717716e-73, No Iterations 3
DILUPBiCGStab:  Solving for ILambda_100_0, Initial residual = 1, Final residual = 7.91263306938e-73, No Iterations 3
DILUPBiCGStab:  Solving for ILambda_101_0, Initial residual = 1, Final residual = 2.88094495139e-72, No Iterations 3
DILUPBiCGStab:  Solving for ILambda_102_0, Initial residual = 1, Final residual = 1.33097807181e-72, No Iterations 3
DILUPBiCGStab:  Solving for ILambda_103_0, Initial residual = 1, Final residual = 5.37225303038e-73, No Iterations 3
DILUPBiCGStab:  Solving for ILambda_104_0, Initial residual = 1, Final residual = 7.51267070428e-73, No Iterations 3
DILUPBiCGStab:  Solving for ILambda_105_0, Initial residual = 1, Final residual = 1.67735256446e-73, No Iterations 3
DILUPBiCGStab:  Solving for ILambda_106_0, Initial residual = 1, Final residual = 6.49441189616e-73, No Iterations 3
DILUPBiCGStab:  Solving for ILambda_107_0, Initial residual = 1, Final residual = 3.57566235885e-73, No Iterations 3
DILUPBiCGStab:  Solving for ILambda_108_0, Initial residual = 1, Final residual = 8.93325022305e-61, No Iterations 49
DILUPBiCGStab:  Solving for ILambda_109_0, Initial residual = 1, Final residual = 7.29212417662e-61, No Iterations 71
DILUPBiCGStab:  Solving for ILambda_110_0, Initial residual = 1, Final residual = 7.93770204918e-61, No Iterations 83
DILUPBiCGStab:  Solving for ILambda_111_0, Initial residual = 1, Final residual = 5.08924369421e-61, No Iterations 92
DILUPBiCGStab:  Solving for ILambda_112_0, Initial residual = 1, Final residual = 3.98492965697e-61, No Iterations 102
DILUPBiCGStab:  Solving for ILambda_113_0, Initial residual = 1, Final residual = 6.47174929655e-61, No Iterations 107
DILUPBiCGStab:  Solving for ILambda_114_0, Initial residual = 1, Final residual = 3.25780761744e-61, No Iterations 105
DILUPBiCGStab:  Solving for ILambda_115_0, Initial residual = 1, Final residual = 3.46443311244e-61, No Iterations 102
DILUPBiCGStab:  Solving for ILambda_116_0, Initial residual = 1, Final residual = 5.39451193397e-61, No Iterations 96
DILUPBiCGStab:  Solving for ILambda_117_0, Initial residual = 1, Final residual = 7.57527325079e-61, No Iterations 83
DILUPBiCGStab:  Solving for ILambda_118_0, Initial residual = 1, Final residual = 9.12706339101e-62, No Iterations 69
DILUPBiCGStab:  Solving for ILambda_119_0, Initial residual = 1, Final residual = 4.55748631697e-61, No Iterations 49
DILUPBiCGStab:  Solving for ILambda_120_0, Initial residual = 1, Final residual = 3.07379775155e-61, No Iterations 40
DILUPBiCGStab:  Solving for ILambda_121_0, Initial residual = 1, Final residual = 3.39861480911e-61, No Iterations 43
DILUPBiCGStab:  Solving for ILambda_122_0, Initial residual = 1, Final residual = 3.1885185752e-61, No Iterations 49
DILUPBiCGStab:  Solving for ILambda_123_0, Initial residual = 1, Final residual = 3.92888021399e-61, No Iterations 43
DILUPBiCGStab:  Solving for ILambda_124_0, Initial residual = 1, Final residual = 3.95719402978e-61, No Iterations 46
DILUPBiCGStab:  Solving for ILambda_125_0, Initial residual = 1, Final residual = 8.27953669868e-61, No Iterations 51
DILUPBiCGStab:  Solving for ILambda_126_0, Initial residual = 1, Final residual = 4.1620331526e-61, No Iterations 47
DILUPBiCGStab:  Solving for ILambda_127_0, Initial residual = 1, Final residual = 1.42570676318e-61, No Iterations 44
DILUPBiCGStab:  Solving for ILambda_128_0, Initial residual = 1, Final residual = 5.26717921077e-61, No Iterations 46
DILUPBiCGStab:  Solving for ILambda_129_0, Initial residual = 1, Final residual = 2.12585946202e-61, No Iterations 44
DILUPBiCGStab:  Solving for ILambda_130_0, Initial residual = 1, Final residual = 6.20336689172e-62, No Iterations 44
DILUPBiCGStab:  Solving for ILambda_131_0, Initial residual = 1, Final residual = 6.14933883283e-62, No Iterations 40
DILUPBiCGStab:  Solving for ILambda_132_0, Initial residual = 1, Final residual = 1.71894451116e-61, No Iterations 49
DILUPBiCGStab:  Solving for ILambda_133_0, Initial residual = 1, Final residual = 3.44678716675e-61, No Iterations 69
DILUPBiCGStab:  Solving for ILambda_134_0, Initial residual = 1, Final residual = 1.4288242484e-61, No Iterations 84
DILUPBiCGStab:  Solving for ILambda_135_0, Initial residual = 1, Final residual = 6.32016061923e-61, No Iterations 96
DILUPBiCGStab:  Solving for ILambda_136_0, Initial residual = 1, Final residual = 5.52052095688e-61, No Iterations 102
DILUPBiCGStab:  Solving for ILambda_137_0, Initial residual = 1, Final residual = 2.62147904814e-61, No Iterations 108
DILUPBiCGStab:  Solving for ILambda_138_0, Initial residual = 1, Final residual = 7.32685178039e-61, No Iterations 107
DILUPBiCGStab:  Solving for ILambda_139_0, Initial residual = 1, Final residual = 2.277040762e-61, No Iterations 101
DILUPBiCGStab:  Solving for ILambda_140_0, Initial residual = 1, Final residual = 6.3370985427e-61, No Iterations 91
DILUPBiCGStab:  Solving for ILambda_141_0, Initial residual = 1, Final residual = 6.91444281769e-61, No Iterations 84
DILUPBiCGStab:  Solving for ILambda_142_0, Initial residual = 1, Final residual = 8.62452694416e-61, No Iterations 71
DILUPBiCGStab:  Solving for ILambda_143_0, Initial residual = 1, Final residual = 4.55073301426e-61, No Iterations 49
DILUPBiCGStab:  Solving for ILambda_144_0, Initial residual = 1, Final residual = 5.63518127387e-62, No Iterations 36
DILUPBiCGStab:  Solving for ILambda_145_0, Initial residual = 1, Final residual = 3.35854035421e-61, No Iterations 38
DILUPBiCGStab:  Solving for ILambda_146_0, Initial residual = 1, Final residual = 1.56345606537e-61, No Iterations 40
DILUPBiCGStab:  Solving for ILambda_147_0, Initial residual = 1, Final residual = 1.06223979302e-61, No Iterations 44
DILUPBiCGStab:  Solving for ILambda_148_0, Initial residual = 1, Final residual = 8.47542033629e-62, No Iterations 40
DILUPBiCGStab:  Solving for ILambda_149_0, Initial residual = 1, Final residual = 6.16679103173e-61, No Iterations 45
DILUPBiCGStab:  Solving for ILambda_150_0, Initial residual = 1, Final residual = 2.45849523372e-62, No Iterations 40
DILUPBiCGStab:  Solving for ILambda_151_0, Initial residual = 1, Final residual = 4.96249999613e-62, No Iterations 39
DILUPBiCGStab:  Solving for ILambda_152_0, Initial residual = 1, Final residual = 4.09342625265e-61, No Iterations 41
DILUPBiCGStab:  Solving for ILambda_153_0, Initial residual = 1, Final residual = 2.58969285074e-62, No Iterations 45
DILUPBiCGStab:  Solving for ILambda_154_0, Initial residual = 1, Final residual = 8.88226725607e-62, No Iterations 40
DILUPBiCGStab:  Solving for ILambda_155_0, Initial residual = 1, Final residual = 3.48844537804e-62, No Iterations 36
DILUPBiCGStab:  Solving for ILambda_156_0, Initial residual = 1, Final residual = 1.75247531529e-61, No Iterations 49
DILUPBiCGStab:  Solving for ILambda_157_0, Initial residual = 1, Final residual = 2.74529868308e-61, No Iterations 67
DILUPBiCGStab:  Solving for ILambda_158_0, Initial residual = 1, Final residual = 1.99598976081e-61, No Iterations 81
DILUPBiCGStab:  Solving for ILambda_159_0, Initial residual = 1, Final residual = 8.85571809166e-61, No Iterations 93
DILUPBiCGStab:  Solving for ILambda_160_0, Initial residual = 1, Final residual = 7.7799949052e-61, No Iterations 99
DILUPBiCGStab:  Solving for ILambda_161_0, Initial residual = 1, Final residual = 3.86462916931e-61, No Iterations 107
DILUPBiCGStab:  Solving for ILambda_162_0, Initial residual = 1, Final residual = 5.1694695246e-61, No Iterations 106
DILUPBiCGStab:  Solving for ILambda_163_0, Initial residual = 1, Final residual = 8.19964834502e-61, No Iterations 101
DILUPBiCGStab:  Solving for ILambda_164_0, Initial residual = 1, Final residual = 1.84101000757e-61, No Iterations 92
DILUPBiCGStab:  Solving for ILambda_165_0, Initial residual = 1, Final residual = 2.09251073133e-61, No Iterations 83
DILUPBiCGStab:  Solving for ILambda_166_0, Initial residual = 1, Final residual = 4.8644732085e-61, No Iterations 72
DILUPBiCGStab:  Solving for ILambda_167_0, Initial residual = 1, Final residual = 3.93720645434e-61, No Iterations 49
DILUPBiCGStab:  Solving for ILambda_168_0, Initial residual = 1, Final residual = 1.56348457052e-71, No Iterations 3
DILUPBiCGStab:  Solving for ILambda_169_0, Initial residual = 1, Final residual = 1.2204580406e-71, No Iterations 3
DILUPBiCGStab:  Solving for ILambda_170_0, Initial residual = 1, Final residual = 9.47342870376e-73, No Iterations 3
DILUPBiCGStab:  Solving for ILambda_171_0, Initial residual = 1, Final residual = 6.8479401135e-71, No Iterations 3
DILUPBiCGStab:  Solving for ILambda_172_0, Initial residual = 1, Final residual = 4.03740261016e-72, No Iterations 3
DILUPBiCGStab:  Solving for ILambda_173_0, Initial residual = 1, Final residual = 3.54066170892e-72, No Iterations 3
DILUPBiCGStab:  Solving for ILambda_174_0, Initial residual = 1, Final residual = 4.66302857347e-72, No Iterations 3
DILUPBiCGStab:  Solving for ILambda_175_0, Initial residual = 1, Final residual = 4.27254690705e-72, No Iterations 3
DILUPBiCGStab:  Solving for ILambda_176_0, Initial residual = 1, Final residual = 5.3686444583e-72, No Iterations 3
DILUPBiCGStab:  Solving for ILambda_177_0, Initial residual = 1, Final residual = 3.81346019067e-72, No Iterations 3
DILUPBiCGStab:  Solving for ILambda_178_0, Initial residual = 1, Final residual = 1.8121120641e-71, No Iterations 3
DILUPBiCGStab:  Solving for ILambda_179_0, Initial residual = 1, Final residual = 8.34901186679e-72, No Iterations 3
DILUPBiCGStab:  Solving for ILambda_180_0, Initial residual = 1, Final residual = 4.14239995602e-61, No Iterations 49
DILUPBiCGStab:  Solving for ILambda_181_0, Initial residual = 1, Final residual = 6.99260218113e-61, No Iterations 72
DILUPBiCGStab:  Solving for ILambda_182_0, Initial residual = 1, Final residual = 8.71439668989e-61, No Iterations 83
DILUPBiCGStab:  Solving for ILambda_183_0, Initial residual = 1, Final residual = 1.15043105315e-61, No Iterations 93
DILUPBiCGStab:  Solving for ILambda_184_0, Initial residual = 1, Final residual = 2.17659763544e-61, No Iterations 103
DILUPBiCGStab:  Solving for ILambda_185_0, Initial residual = 1, Final residual = 2.54129137027e-61, No Iterations 106
DILUPBiCGStab:  Solving for ILambda_186_0, Initial residual = 1, Final residual = 7.1844510429e-61, No Iterations 104
DILUPBiCGStab:  Solving for ILambda_187_0, Initial residual = 1, Final residual = 4.81998929405e-61, No Iterations 99
DILUPBiCGStab:  Solving for ILambda_188_0, Initial residual = 1, Final residual = 5.09041587032e-61, No Iterations 94
DILUPBiCGStab:  Solving for ILambda_189_0, Initial residual = 1, Final residual = 6.66743314984e-61, No Iterations 81
DILUPBiCGStab:  Solving for ILambda_190_0, Initial residual = 1, Final residual = 5.52940944473e-61, No Iterations 68
DILUPBiCGStab:  Solving for ILambda_191_0, Initial residual = 1, Final residual = 1.78029071684e-61, No Iterations 49
DILUPBiCGStab:  Solving for ILambda_192_0, Initial residual = 1, Final residual = 1.36582538316e-61, No Iterations 35
DILUPBiCGStab:  Solving for ILambda_193_0, Initial residual = 1, Final residual = 1.52610651459e-61, No Iterations 34
DILUPBiCGStab:  Solving for ILambda_194_0, Initial residual = 1, Final residual = 3.34023606521e-62, No Iterations 37
DILUPBiCGStab:  Solving for ILambda_195_0, Initial residual = 1, Final residual = 3.18391217819e-61, No Iterations 36
DILUPBiCGStab:  Solving for ILambda_196_0, Initial residual = 1, Final residual = 6.12930309894e-63, No Iterations 36
DILUPBiCGStab:  Solving for ILambda_197_0, Initial residual = 1, Final residual = 8.24166087887e-63, No Iterations 35
DILUPBiCGStab:  Solving for ILambda_198_0, Initial residual = 1, Final residual = 4.23279810915e-63, No Iterations 36
DILUPBiCGStab:  Solving for ILambda_199_0, Initial residual = 1, Final residual = 2.77884098177e-61, No Iterations 37
DILUPBiCGStab:  Solving for ILambda_200_0, Initial residual = 1, Final residual = 3.79165139116e-61, No Iterations 35
DILUPBiCGStab:  Solving for ILambda_201_0, Initial residual = 1, Final residual = 5.8699619826e-61, No Iterations 36
DILUPBiCGStab:  Solving for ILambda_202_0, Initial residual = 1, Final residual = 1.85606080258e-61, No Iterations 35
DILUPBiCGStab:  Solving for ILambda_203_0, Initial residual = 1, Final residual = 6.02928480742e-61, No Iterations 35
DILUPBiCGStab:  Solving for ILambda_204_0, Initial residual = 1, Final residual = 3.25039976168e-61, No Iterations 47
DILUPBiCGStab:  Solving for ILambda_205_0, Initial residual = 1, Final residual = 2.37431601202e-61, No Iterations 66
DILUPBiCGStab:  Solving for ILambda_206_0, Initial residual = 1, Final residual = 3.41482142109e-61, No Iterations 85
DILUPBiCGStab:  Solving for ILambda_207_0, Initial residual = 1, Final residual = 7.10605086047e-61, No Iterations 94
DILUPBiCGStab:  Solving for ILambda_208_0, Initial residual = 1, Final residual = 2.63099304133e-61, No Iterations 101
DILUPBiCGStab:  Solving for ILambda_209_0, Initial residual = 1, Final residual = 8.47251394828e-61, No Iterations 104
DILUPBiCGStab:  Solving for ILambda_210_0, Initial residual = 1, Final residual = 5.84695187191e-61, No Iterations 105
DILUPBiCGStab:  Solving for ILambda_211_0, Initial residual = 1, Final residual = 2.29189998238e-61, No Iterations 102
DILUPBiCGStab:  Solving for ILambda_212_0, Initial residual = 1, Final residual = 5.17304896305e-61, No Iterations 97
DILUPBiCGStab:  Solving for ILambda_213_0, Initial residual = 1, Final residual = 9.7890290104e-61, No Iterations 87
DILUPBiCGStab:  Solving for ILambda_214_0, Initial residual = 1, Final residual = 3.20407177306e-61, No Iterations 71
DILUPBiCGStab:  Solving for ILambda_215_0, Initial residual = 1, Final residual = 2.82010333475e-61, No Iterations 47
DILUPBiCGStab:  Solving for ILambda_216_0, Initial residual = 1, Final residual = 6.86317123322e-73, No Iterations 3
DILUPBiCGStab:  Solving for ILambda_217_0, Initial residual = 1, Final residual = 5.32758135695e-69, No Iterations 3
DILUPBiCGStab:  Solving for ILambda_218_0, Initial residual = 1, Final residual = 4.12745431416e-72, No Iterations 3
DILUPBiCGStab:  Solving for ILambda_219_0, Initial residual = 1, Final residual = 9.92563182108e-72, No Iterations 3
DILUPBiCGStab:  Solving for ILambda_220_0, Initial residual = 1, Final residual = 1.70017026978e-73, No Iterations 3
DILUPBiCGStab:  Solving for ILambda_221_0, Initial residual = 1, Final residual = 1.31157033084e-72, No Iterations 3
DILUPBiCGStab:  Solving for ILambda_222_0, Initial residual = 1, Final residual = 8.09335833464e-72, No Iterations 3
DILUPBiCGStab:  Solving for ILambda_223_0, Initial residual = 1, Final residual = 2.77316793431e-73, No Iterations 3
DILUPBiCGStab:  Solving for ILambda_224_0, Initial residual = 1, Final residual = 2.04922269708e-73, No Iterations 3
DILUPBiCGStab:  Solving for ILambda_225_0, Initial residual = 1, Final residual = 3.65510581828e-73, No Iterations 3
DILUPBiCGStab:  Solving for ILambda_226_0, Initial residual = 1, Final residual = 8.73063454398e-74, No Iterations 3
DILUPBiCGStab:  Solving for ILambda_227_0, Initial residual = 1, Final residual = 1.90393197683e-73, No Iterations 3
DILUPBiCGStab:  Solving for ILambda_228_0, Initial residual = 1, Final residual = 3.92592415745e-61, No Iterations 47
DILUPBiCGStab:  Solving for ILambda_229_0, Initial residual = 1, Final residual = 5.09622069136e-61, No Iterations 71
DILUPBiCGStab:  Solving for ILambda_230_0, Initial residual = 1, Final residual = 2.71229627183e-61, No Iterations 88
DILUPBiCGStab:  Solving for ILambda_231_0, Initial residual = 1, Final residual = 4.63375767167e-61, No Iterations 96
DILUPBiCGStab:  Solving for ILambda_232_0, Initial residual = 1, Final residual = 4.28078594696e-61, No Iterations 102
DILUPBiCGStab:  Solving for ILambda_233_0, Initial residual = 1, Final residual = 5.99281720087e-61, No Iterations 101
DILUPBiCGStab:  Solving for ILambda_234_0, Initial residual = 1, Final residual = 2.53126581146e-61, No Iterations 103
DILUPBiCGStab:  Solving for ILambda_235_0, Initial residual = 1, Final residual = 6.57026017612e-61, No Iterations 100
DILUPBiCGStab:  Solving for ILambda_236_0, Initial residual = 1, Final residual = 4.40078817165e-61, No Iterations 94
DILUPBiCGStab:  Solving for ILambda_237_0, Initial residual = 1, Final residual = 7.18887189836e-61, No Iterations 83
DILUPBiCGStab:  Solving for ILambda_238_0, Initial residual = 1, Final residual = 5.14715376844e-61, No Iterations 66
DILUPBiCGStab:  Solving for ILambda_239_0, Initial residual = 1, Final residual = 1.07518574279e-61, No Iterations 47
DILUPBiCGStab:  Solving for ILambda_240_0, Initial residual = 1, Final residual = 1.02322805057e-61, No Iterations 28
DILUPBiCGStab:  Solving for ILambda_241_0, Initial residual = 1, Final residual = 1.86025154271e-61, No Iterations 29
DILUPBiCGStab:  Solving for ILambda_242_0, Initial residual = 1, Final residual = 8.09812860314e-62, No Iterations 29
DILUPBiCGStab:  Solving for ILambda_243_0, Initial residual = 1, Final residual = 9.34519545342e-63, No Iterations 31
DILUPBiCGStab:  Solving for ILambda_244_0, Initial residual = 1, Final residual = 4.97132496211e-62, No Iterations 30
DILUPBiCGStab:  Solving for ILambda_245_0, Initial residual = 1, Final residual = 7.61317745671e-61, No Iterations 30
DILUPBiCGStab:  Solving for ILambda_246_0, Initial residual = 1, Final residual = 3.51694268498e-61, No Iterations 30
DILUPBiCGStab:  Solving for ILambda_247_0, Initial residual = 1, Final residual = 2.34272347283e-62, No Iterations 30
DILUPBiCGStab:  Solving for ILambda_248_0, Initial residual = 1, Final residual = 3.28657863855e-61, No Iterations 30
DILUPBiCGStab:  Solving for ILambda_249_0, Initial residual = 1, Final residual = 4.59838702611e-62, No Iterations 30
DILUPBiCGStab:  Solving for ILambda_250_0, Initial residual = 1, Final residual = 2.15208539942e-61, No Iterations 29
DILUPBiCGStab:  Solving for ILambda_251_0, Initial residual = 1, Final residual = 2.09533678313e-61, No Iterations 28
DILUPBiCGStab:  Solving for ILambda_252_0, Initial residual = 1, Final residual = 3.40629813567e-61, No Iterations 45
DILUPBiCGStab:  Solving for ILambda_253_0, Initial residual = 1, Final residual = 3.2170854873e-61, No Iterations 67
DILUPBiCGStab:  Solving for ILambda_254_0, Initial residual = 1, Final residual = 5.06518556604e-61, No Iterations 83
DILUPBiCGStab:  Solving for ILambda_255_0, Initial residual = 1, Final residual = 3.26949692258e-61, No Iterations 94
DILUPBiCGStab:  Solving for ILambda_256_0, Initial residual = 1, Final residual = 1.05708897613e-61, No Iterations 97
DILUPBiCGStab:  Solving for ILambda_257_0, Initial residual = 1, Final residual = 3.51085936724e-61, No Iterations 98
DILUPBiCGStab:  Solving for ILambda_258_0, Initial residual = 1, Final residual = 3.13388766938e-61, No Iterations 97
DILUPBiCGStab:  Solving for ILambda_259_0, Initial residual = 1, Final residual = 6.02858413739e-61, No Iterations 98
DILUPBiCGStab:  Solving for ILambda_260_0, Initial residual = 1, Final residual = 3.61766515344e-61, No Iterations 94
DILUPBiCGStab:  Solving for ILambda_261_0, Initial residual = 1, Final residual = 9.45223233103e-61, No Iterations 84
DILUPBiCGStab:  Solving for ILambda_262_0, Initial residual = 1, Final residual = 5.58046018043e-61, No Iterations 69
DILUPBiCGStab:  Solving for ILambda_263_0, Initial residual = 1, Final residual = 2.58003504032e-61, No Iterations 46
DILUPBiCGStab:  Solving for ILambda_264_0, Initial residual = 1, Final residual = 2.38654394545e-73, No Iterations 3
DILUPBiCGStab:  Solving for ILambda_265_0, Initial residual = 1, Final residual = 2.17940218299e-73, No Iterations 3
DILUPBiCGStab:  Solving for ILambda_266_0, Initial residual = 1, Final residual = 8.17885596077e-74, No Iterations 3
DILUPBiCGStab:  Solving for ILambda_267_0, Initial residual = 1, Final residual = 1.00204520381e-73, No Iterations 3
DILUPBiCGStab:  Solving for ILambda_268_0, Initial residual = 1, Final residual = 1.46940770495e-73, No Iterations 3
DILUPBiCGStab:  Solving for ILambda_269_0, Initial residual = 1, Final residual = 2.72753599295e-74, No Iterations 3
DILUPBiCGStab:  Solving for ILambda_270_0, Initial residual = 1, Final residual = 5.0268244019e-74, No Iterations 3
DILUPBiCGStab:  Solving for ILambda_271_0, Initial residual = 1, Final residual = 2.79989539724e-74, No Iterations 3
DILUPBiCGStab:  Solving for ILambda_272_0, Initial residual = 1, Final residual = 2.42544257364e-73, No Iterations 3
DILUPBiCGStab:  Solving for ILambda_273_0, Initial residual = 1, Final residual = 6.78989377115e-74, No Iterations 3
DILUPBiCGStab:  Solving for ILambda_274_0, Initial residual = 1, Final residual = 4.35194065977e-72, No Iterations 3
DILUPBiCGStab:  Solving for ILambda_275_0, Initial residual = 1, Final residual = 9.47652094014e-73, No Iterations 3
DILUPBiCGStab:  Solving for ILambda_276_0, Initial residual = 1, Final residual = 7.20831028858e-61, No Iterations 46
DILUPBiCGStab:  Solving for ILambda_277_0, Initial residual = 1, Final residual = 9.77215458836e-61, No Iterations 70
DILUPBiCGStab:  Solving for ILambda_278_0, Initial residual = 1, Final residual = 1.3129579768e-61, No Iterations 86
DILUPBiCGStab:  Solving for ILambda_279_0, Initial residual = 1, Final residual = 4.90428701799e-61, No Iterations 94
DILUPBiCGStab:  Solving for ILambda_280_0, Initial residual = 1, Final residual = 3.5092435139e-61, No Iterations 98
DILUPBiCGStab:  Solving for ILambda_281_0, Initial residual = 1, Final residual = 1.62526734322e-61, No Iterations 98
DILUPBiCGStab:  Solving for ILambda_282_0, Initial residual = 1, Final residual = 4.10699704488e-61, No Iterations 96
DILUPBiCGStab:  Solving for ILambda_283_0, Initial residual = 1, Final residual = 2.11987947172e-61, No Iterations 96
DILUPBiCGStab:  Solving for ILambda_284_0, Initial residual = 1, Final residual = 4.62275831408e-62, No Iterations 95
[...]
DILUPBiCGStab:  Solving for ILambda_140_0, Initial residual = 1.65373526133e-15, Final residual = 2.68181653852e-61, No Iterations 70
DILUPBiCGStab:  Solving for ILambda_141_0, Initial residual = 1.47352293219e-15, Final residual = 2.86597538207e-61, No Iterations 65
DILUPBiCGStab:  Solving for ILambda_142_0, Initial residual = 1.47061906034e-15, Final residual = 3.88594857569e-61, No Iterations 53
DILUPBiCGStab:  Solving for ILambda_143_0, Initial residual = 1.20275756396e-15, Final residual = 1.9825847233e-61, No Iterations 35
DILUPBiCGStab:  Solving for ILambda_144_0, Initial residual = 1.10117271812e-15, Final residual = 2.76375801288e-61, No Iterations 24
DILUPBiCGStab:  Solving for ILambda_145_0, Initial residual = 1.07522333889e-15, Final residual = 4.95441179537e-61, No Iterations 28
DILUPBiCGStab:  Solving for ILambda_146_0, Initial residual = 1.15791153917e-15, Final residual = 1.62126174917e-61, No Iterations 23
DILUPBiCGStab:  Solving for ILambda_147_0, Initial residual = 1.16975430384e-15, Final residual = 4.81520943238e-61, No Iterations 23
DILUPBiCGStab:  Solving for ILambda_148_0, Initial residual = 1.28924931246e-15, Final residual = 3.94559515428e-62, No Iterations 25
DILUPBiCGStab:  Solving for ILambda_149_0, Initial residual = 1.32187093032e-15, Final residual = 1.3763693526e-61, No Iterations 24
DILUPBiCGStab:  Solving for ILambda_150_0, Initial residual = 1.24098826504e-15, Final residual = 7.68901212193e-61, No Iterations 25
DILUPBiCGStab:  Solving for ILambda_151_0, Initial residual = 1.26004214364e-15, Final residual = 2.30882468833e-61, No Iterations 26
DILUPBiCGStab:  Solving for ILambda_152_0, Initial residual = 1.27335411629e-15, Final residual = 5.18590137666e-61, No Iterations 22
DILUPBiCGStab:  Solving for ILambda_153_0, Initial residual = 1.24162146742e-15, Final residual = 9.5347819101e-61, No Iterations 24
DILUPBiCGStab:  Solving for ILambda_154_0, Initial residual = 1.19649354488e-15, Final residual = 3.70449040639e-61, No Iterations 24
DILUPBiCGStab:  Solving for ILambda_155_0, Initial residual = 1.16365121441e-15, Final residual = 6.13640050133e-62, No Iterations 25
DILUPBiCGStab:  Solving for ILambda_156_0, Initial residual = 1.38534821015e-15, Final residual = 2.19606112315e-62, No Iterations 38
DILUPBiCGStab:  Solving for ILambda_157_0, Initial residual = 1.20874733342e-15, Final residual = 8.20975015591e-62, No Iterations 52
DILUPBiCGStab:  Solving for ILambda_158_0, Initial residual = 1.59473469364e-15, Final residual = 8.96040003617e-62, No Iterations 60
DILUPBiCGStab:  Solving for ILambda_159_0, Initial residual = 1.63862833361e-15, Final residual = 1.62904296903e-61, No Iterations 68
DILUPBiCGStab:  Solving for ILambda_160_0, Initial residual = 2.21054857784e-15, Final residual = 4.51926507156e-61, No Iterations 70
DILUPBiCGStab:  Solving for ILambda_161_0, Initial residual = 2.20098935701e-15, Final residual = 5.84892241175e-61, No Iterations 76
DILUPBiCGStab:  Solving for ILambda_162_0, Initial residual = 2.17201303459e-15, Final residual = 8.70770947685e-61, No Iterations 79
DILUPBiCGStab:  Solving for ILambda_163_0, Initial residual = 2.33004862149e-15, Final residual = 6.92036905537e-61, No Iterations 73
DILUPBiCGStab:  Solving for ILambda_164_0, Initial residual = 1.88718375393e-15, Final residual = 3.41420435238e-61, No Iterations 69
DILUPBiCGStab:  Solving for ILambda_165_0, Initial residual = 1.5770105719e-15, Final residual = 6.457302578e-61, No Iterations 62
DILUPBiCGStab:  Solving for ILambda_166_0, Initial residual = 1.39762277615e-15, Final residual = 7.68281296804e-61, No Iterations 54
DILUPBiCGStab:  Solving for ILambda_167_0, Initial residual = 1.21175904407e-15, Final residual = 8.15103845546e-61, No Iterations 36
DILUPBiCGStab:  Solving for ILambda_168_0, Initial residual = 1.16257359128e-15, Final residual = 7.24852093072e-61, No Iterations 2
DILUPBiCGStab:  Solving for ILambda_169_0, Initial residual = 1.21121213822e-15, Final residual = 2.85019642681e-61, No Iterations 2
DILUPBiCGStab:  Solving for ILambda_170_0, Initial residual = 1.28909118714e-15, Final residual = 9.24603033284e-62, No Iterations 2
DILUPBiCGStab:  Solving for ILambda_171_0, Initial residual = 1.30361386059e-15, Final residual = 5.8674405755e-61, No Iterations 2
DILUPBiCGStab:  Solving for ILambda_172_0, Initial residual = 1.31178685577e-15, Final residual = 9.95621742705e-61, No Iterations 2
DILUPBiCGStab:  Solving for ILambda_173_0, Initial residual = 1.23364069552e-15, Final residual = 3.79533810916e-74, No Iterations 2
DILUPBiCGStab:  Solving for ILambda_174_0, Initial residual = 1.29655252276e-15, Final residual = 4.65975225228e-61, No Iterations 2
DILUPBiCGStab:  Solving for ILambda_175_0, Initial residual = 1.23442431135e-15, Final residual = 1.26237147241e-75, No Iterations 2
DILUPBiCGStab:  Solving for ILambda_176_0, Initial residual = 1.19258190292e-15, Final residual = 5.5383773864e-74, No Iterations 2
DILUPBiCGStab:  Solving for ILambda_177_0, Initial residual = 1.12199223391e-15, Final residual = 3.15579376316e-61, No Iterations 2
DILUPBiCGStab:  Solving for ILambda_178_0, Initial residual = 1.13036701257e-15, Final residual = 7.19819212196e-61, No Iterations 2
DILUPBiCGStab:  Solving for ILambda_179_0, Initial residual = 1.09250756502e-15, Final residual = 2.85954055273e-61, No Iterations 2
DILUPBiCGStab:  Solving for ILambda_180_0, Initial residual = 1.1938187986e-15, Final residual = 2.02137683065e-61, No Iterations 36
DILUPBiCGStab:  Solving for ILambda_181_0, Initial residual = 1.58940119844e-15, Final residual = 3.3321229899e-61, No Iterations 51
DILUPBiCGStab:  Solving for ILambda_182_0, Initial residual = 1.70907409009e-15, Final residual = 7.32653046723e-61, No Iterations 61
DILUPBiCGStab:  Solving for ILambda_183_0, Initial residual = 1.72361958049e-15, Final residual = 2.76564791154e-61, No Iterations 68
DILUPBiCGStab:  Solving for ILambda_184_0, Initial residual = 2.2098452675e-15, Final residual = 2.31143092313e-61, No Iterations 75
DILUPBiCGStab:  Solving for ILambda_185_0, Initial residual = 1.62719977953e-15, Final residual = 3.31339864605e-61, No Iterations 78
DILUPBiCGStab:  Solving for ILambda_186_0, Initial residual = 2.12884462964e-15, Final residual = 6.41456526453e-61, No Iterations 74
DILUPBiCGStab:  Solving for ILambda_187_0, Initial residual = 1.99488851511e-15, Final residual = 7.94033944096e-61, No Iterations 73
DILUPBiCGStab:  Solving for ILambda_188_0, Initial residual = 1.73990202756e-15, Final residual = 9.12788186002e-61, No Iterations 64
DILUPBiCGStab:  Solving for ILambda_189_0, Initial residual = 1.87278651e-15, Final residual = 4.51241275436e-61, No Iterations 60
DILUPBiCGStab:  Solving for ILambda_190_0, Initial residual = 1.24922053332e-15, Final residual = 2.31337026611e-61, No Iterations 50
DILUPBiCGStab:  Solving for ILambda_191_0, Initial residual = 1.19978836423e-15, Final residual = 2.33006332867e-61, No Iterations 36
DILUPBiCGStab:  Solving for ILambda_192_0, Initial residual = 3.10213940246e-16, Final residual = 5.76506015423e-61, No Iterations 18
DILUPBiCGStab:  Solving for ILambda_193_0, Initial residual = 3.15510278221e-16, Final residual = 6.50832665383e-61, No Iterations 19
DILUPBiCGStab:  Solving for ILambda_194_0, Initial residual = 3.23484581067e-16, Final residual = 2.51844812483e-61, No Iterations 20
DILUPBiCGStab:  Solving for ILambda_195_0, Initial residual = 3.1498497837e-16, Final residual = 7.52268569453e-61, No Iterations 20
DILUPBiCGStab:  Solving for ILambda_196_0, Initial residual = 2.97811522819e-16, Final residual = 5.56887440354e-62, No Iterations 22
DILUPBiCGStab:  Solving for ILambda_197_0, Initial residual = 2.55393591748e-16, Final residual = 1.49311113339e-61, No Iterations 21
DILUPBiCGStab:  Solving for ILambda_198_0, Initial residual = 2.36385920667e-16, Final residual = 3.74658350727e-62, No Iterations 22
DILUPBiCGStab:  Solving for ILambda_199_0, Initial residual = 2.50705089818e-16, Final residual = 5.73138134814e-61, No Iterations 21
DILUPBiCGStab:  Solving for ILambda_200_0, Initial residual = 4.17765101255e-16, Final residual = 6.10708011209e-61, No Iterations 21
DILUPBiCGStab:  Solving for ILambda_201_0, Initial residual = 4.15869318185e-16, Final residual = 2.62409579843e-61, No Iterations 20
DILUPBiCGStab:  Solving for ILambda_202_0, Initial residual = 4.08210501175e-16, Final residual = 2.34011054667e-62, No Iterations 21
DILUPBiCGStab:  Solving for ILambda_203_0, Initial residual = 3.85786054755e-16, Final residual = 2.3160125123e-61, No Iterations 21
DILUPBiCGStab:  Solving for ILambda_204_0, Initial residual = 3.25236961484e-16, Final residual = 3.37062526572e-61, No Iterations 36
DILUPBiCGStab:  Solving for ILambda_205_0, Initial residual = 3.86465751462e-16, Final residual = 7.3722906359e-61, No Iterations 50
DILUPBiCGStab:  Solving for ILambda_206_0, Initial residual = 5.24535896895e-16, Final residual = 1.78322661895e-61, No Iterations 62
DILUPBiCGStab:  Solving for ILambda_207_0, Initial residual = 4.8259313848e-16, Final residual = 7.15086400074e-61, No Iterations 66
DILUPBiCGStab:  Solving for ILambda_208_0, Initial residual = 4.67994620962e-16, Final residual = 3.40266809492e-61, No Iterations 70
DILUPBiCGStab:  Solving for ILambda_209_0, Initial residual = 4.1337153078e-16, Final residual = 9.78469480475e-61, No Iterations 75
DILUPBiCGStab:  Solving for ILambda_210_0, Initial residual = 5.85691392183e-16, Final residual = 3.17151371401e-61, No Iterations 81
DILUPBiCGStab:  Solving for ILambda_211_0, Initial residual = 5.08269638392e-16, Final residual = 6.45323215145e-61, No Iterations 73
DILUPBiCGStab:  Solving for ILambda_212_0, Initial residual = 5.8410551818e-16, Final residual = 2.74584507221e-61, No Iterations 71
DILUPBiCGStab:  Solving for ILambda_213_0, Initial residual = 5.58653108814e-16, Final residual = 1.93426615357e-61, No Iterations 62
DILUPBiCGStab:  Solving for ILambda_214_0, Initial residual = 4.55055654543e-16, Final residual = 6.5857198433e-61, No Iterations 50
DILUPBiCGStab:  Solving for ILambda_215_0, Initial residual = 4.11656403186e-16, Final residual = 3.42033086487e-61, No Iterations 34
DILUPBiCGStab:  Solving for ILambda_216_0, Initial residual = 3.76421574725e-16, Final residual = 2.0670894157e-61, No Iterations 2
DILUPBiCGStab:  Solving for ILambda_217_0, Initial residual = 4.17614687806e-16, Final residual = 7.21830413426e-62, No Iterations 2
DILUPBiCGStab:  Solving for ILambda_218_0, Initial residual = 4.19406456151e-16, Final residual = 3.24054939864e-61, No Iterations 2
DILUPBiCGStab:  Solving for ILambda_219_0, Initial residual = 4.15545196323e-16, Final residual = 1.26758683967e-61, No Iterations 2
DILUPBiCGStab:  Solving for ILambda_220_0, Initial residual = 2.64731398884e-16, Final residual = 2.51584828715e-61, No Iterations 2
DILUPBiCGStab:  Solving for ILambda_221_0, Initial residual = 2.44070932562e-16, Final residual = 4.6714352202e-61, No Iterations 2
DILUPBiCGStab:  Solving for ILambda_222_0, Initial residual = 2.32731065057e-16, Final residual = 2.49008470233e-61, No Iterations 2
DILUPBiCGStab:  Solving for ILambda_223_0, Initial residual = 2.56773635144e-16, Final residual = 5.41459286811e-62, No Iterations 2
DILUPBiCGStab:  Solving for ILambda_224_0, Initial residual = 3.32607156755e-16, Final residual = 5.25189013144e-62, No Iterations 2
DILUPBiCGStab:  Solving for ILambda_225_0, Initial residual = 3.33189562729e-16, Final residual = 3.43072464299e-61, No Iterations 2
DILUPBiCGStab:  Solving for ILambda_226_0, Initial residual = 3.26489631456e-16, Final residual = 1.44000280021e-61, No Iterations 2
DILUPBiCGStab:  Solving for ILambda_227_0, Initial residual = 3.09698487377e-16, Final residual = 1.44232689679e-61, No Iterations 2
DILUPBiCGStab:  Solving for ILambda_228_0, Initial residual = 4.09502208536e-16, Final residual = 1.30457589727e-61, No Iterations 35
DILUPBiCGStab:  Solving for ILambda_229_0, Initial residual = 4.53424656505e-16, Final residual = 3.95254477656e-61, No Iterations 50
DILUPBiCGStab:  Solving for ILambda_230_0, Initial residual = 4.58982560919e-16, Final residual = 9.36749655769e-61, No Iterations 60
DILUPBiCGStab:  Solving for ILambda_231_0, Initial residual = 5.23166369694e-16, Final residual = 8.97743082417e-62, No Iterations 67
DILUPBiCGStab:  Solving for ILambda_232_0, Initial residual = 4.57354813341e-16, Final residual = 6.15426371678e-61, No Iterations 71
DILUPBiCGStab:  Solving for ILambda_233_0, Initial residual = 3.53136170646e-16, Final residual = 7.36830800971e-61, No Iterations 72
DILUPBiCGStab:  Solving for ILambda_234_0, Initial residual = 3.03848232756e-16, Final residual = 4.27202081306e-61, No Iterations 76
DILUPBiCGStab:  Solving for ILambda_235_0, Initial residual = 4.45760868203e-16, Final residual = 6.3798271288e-61, No Iterations 77
DILUPBiCGStab:  Solving for ILambda_236_0, Initial residual = 4.65574079786e-16, Final residual = 8.10248867129e-61, No Iterations 67
DILUPBiCGStab:  Solving for ILambda_237_0, Initial residual = 4.61909918937e-16, Final residual = 9.08044860868e-61, No Iterations 60
DILUPBiCGStab:  Solving for ILambda_238_0, Initial residual = 4.076622569e-16, Final residual = 3.63496167037e-61, No Iterations 49
DILUPBiCGStab:  Solving for ILambda_239_0, Initial residual = 3.22913615438e-16, Final residual = 6.15650850164e-61, No Iterations 36
DILUPBiCGStab:  Solving for ILambda_240_0, Initial residual = 8.15807653271e-17, Final residual = 5.82170414066e-61, No Iterations 17
DILUPBiCGStab:  Solving for ILambda_241_0, Initial residual = 9.08554434287e-17, Final residual = 2.53794096876e-61, No Iterations 17
DILUPBiCGStab:  Solving for ILambda_242_0, Initial residual = 1.31929245502e-16, Final residual = 8.5787441537e-62, No Iterations 18
DILUPBiCGStab:  Solving for ILambda_243_0, Initial residual = 1.27346144521e-16, Final residual = 6.85339435824e-62, No Iterations 18
DILUPBiCGStab:  Solving for ILambda_244_0, Initial residual = 1.31485302756e-16, Final residual = 3.4434293533e-61, No Iterations 19
DILUPBiCGStab:  Solving for ILambda_245_0, Initial residual = 1.41238085302e-16, Final residual = 3.29995323399e-62, No Iterations 18
DILUPBiCGStab:  Solving for ILambda_246_0, Initial residual = 1.38317164469e-16, Final residual = 1.05260278822e-61, No Iterations 19
DILUPBiCGStab:  Solving for ILambda_247_0, Initial residual = 1.42490564071e-16, Final residual = 8.3291029382e-62, No Iterations 18
DILUPBiCGStab:  Solving for ILambda_248_0, Initial residual = 1.43744413132e-16, Final residual = 7.20305101063e-61, No Iterations 17
DILUPBiCGStab:  Solving for ILambda_249_0, Initial residual = 1.45764096093e-16, Final residual = 1.85124973864e-61, No Iterations 17
DILUPBiCGStab:  Solving for ILambda_250_0, Initial residual = 1.08211721428e-16, Final residual = 1.29887851907e-61, No Iterations 17
DILUPBiCGStab:  Solving for ILambda_251_0, Initial residual = 9.56986927552e-17, Final residual = 6.8466826837e-61, No Iterations 17
DILUPBiCGStab:  Solving for ILambda_252_0, Initial residual = 8.46672843566e-17, Final residual = 5.5953187365e-61, No Iterations 33
DILUPBiCGStab:  Solving for ILambda_253_0, Initial residual = 1.34381383063e-16, Final residual = 5.21993954814e-61, No Iterations 49
DILUPBiCGStab:  Solving for ILambda_254_0, Initial residual = 1.66347937598e-16, Final residual = 2.47807746908e-61, No Iterations 60
DILUPBiCGStab:  Solving for ILambda_255_0, Initial residual = 1.71142796496e-16, Final residual = 4.02216054218e-61, No Iterations 66
DILUPBiCGStab:  Solving for ILambda_256_0, Initial residual = 1.57325090488e-16, Final residual = 2.77765576547e-61, No Iterations 73
DILUPBiCGStab:  Solving for ILambda_257_0, Initial residual = 1.93669377472e-16, Final residual = 1.43545167973e-61, No Iterations 74
DILUPBiCGStab:  Solving for ILambda_258_0, Initial residual = 1.75928095217e-16, Final residual = 8.77650144754e-61, No Iterations 80
DILUPBiCGStab:  Solving for ILambda_259_0, Initial residual = 1.78844650236e-16, Final residual = 5.93552120598e-61, No Iterations 73
DILUPBiCGStab:  Solving for ILambda_260_0, Initial residual = 1.82202662354e-16, Final residual = 4.74660753445e-61, No Iterations 64
DILUPBiCGStab:  Solving for ILambda_261_0, Initial residual = 1.85762601342e-16, Final residual = 9.9855023216e-61, No Iterations 57
DILUPBiCGStab:  Solving for ILambda_262_0, Initial residual = 1.33728789457e-16, Final residual = 5.98070765364e-61, No Iterations 49
DILUPBiCGStab:  Solving for ILambda_263_0, Initial residual = 1.05416660324e-16, Final residual = 7.85545039236e-61, No Iterations 33
DILUPBiCGStab:  Solving for ILambda_264_0, Initial residual = 1.01036012021e-16, Final residual = 5.52920016457e-62, No Iterations 2
DILUPBiCGStab:  Solving for ILambda_265_0, Initial residual = 1.07820295921e-16, Final residual = 2.49362299755e-62, No Iterations 2
DILUPBiCGStab:  Solving for ILambda_266_0, Initial residual = 1.41450560232e-16, Final residual = 3.41101575176e-62, No Iterations 2
DILUPBiCGStab:  Solving for ILambda_267_0, Initial residual = 1.44613863416e-16, Final residual = 3.89732139194e-62, No Iterations 2
DILUPBiCGStab:  Solving for ILambda_268_0, Initial residual = 1.43274992515e-16, Final residual = 1.51272321516e-62, No Iterations 2
DILUPBiCGStab:  Solving for ILambda_269_0, Initial residual = 1.37676170545e-16, Final residual = 1.41500961848e-62, No Iterations 2
DILUPBiCGStab:  Solving for ILambda_270_0, Initial residual = 1.39629649282e-16, Final residual = 3.63858072522e-62, No Iterations 2
DILUPBiCGStab:  Solving for ILambda_271_0, Initial residual = 1.29384358292e-16, Final residual = 2.60388602744e-62, No Iterations 2
DILUPBiCGStab:  Solving for ILambda_272_0, Initial residual = 1.29409533424e-16, Final residual = 3.79921806158e-62, No Iterations 2
DILUPBiCGStab:  Solving for ILambda_273_0, Initial residual = 1.31557147485e-16, Final residual = 2.35565447747e-62, No Iterations 2
DILUPBiCGStab:  Solving for ILambda_274_0, Initial residual = 9.08227316902e-17, Final residual = 4.31279845028e-62, No Iterations 2
DILUPBiCGStab:  Solving for ILambda_275_0, Initial residual = 8.30350275622e-17, Final residual = 2.45382722368e-62, No Iterations 2
DILUPBiCGStab:  Solving for ILambda_276_0, Initial residual = 1.03701978871e-16, Final residual = 1.65690757322e-61, No Iterations 33
DILUPBiCGStab:  Solving for ILambda_277_0, Initial residual = 1.35709164158e-16, Final residual = 2.60313940838e-61, No Iterations 47
DILUPBiCGStab:  Solving for ILambda_278_0, Initial residual = 1.96192212541e-16, Final residual = 9.14627462295e-61, No Iterations 56
DILUPBiCGStab:  Solving for ILambda_279_0, Initial residual = 1.6705672911e-16, Final residual = 3.11601753948e-61, No Iterations 65
DILUPBiCGStab:  Solving for ILambda_280_0, Initial residual = 1.67593660509e-16, Final residual = 2.27761842327e-61, No Iterations 71
DILUPBiCGStab:  Solving for ILambda_281_0, Initial residual = 1.79822990934e-16, Final residual = 6.04132716607e-61, No Iterations 76
DILUPBiCGStab:  Solving for ILambda_282_0, Initial residual = 1.72395721407e-16, Final residual = 4.01394430921e-61, No Iterations 77
DILUPBiCGStab:  Solving for ILambda_283_0, Initial residual = 1.68966677174e-16, Final residual = 8.38534466128e-61, No Iterations 70
DILUPBiCGStab:  Solving for ILambda_284_0, Initial residual = 1.7702472717e-16, Final residual = 7.1919342657e-61, No Iterations 67
DILUPBiCGStab:  Solving for ILambda_285_0, Initial residual = 1.54283058149e-16, Final residual = 3.99499185696e-61, No Iterations 57
DILUPBiCGStab:  Solving for ILambda_286_0, Initial residual = 1.25620325462e-16, Final residual = 3.36567355802e-61, No Iterations 49
DILUPBiCGStab:  Solving for ILambda_287_0, Initial residual = 8.78833597161e-17, Final residual = 8.04719720391e-61, No Iterations 34
min/max(T) = 1000, 1000
ExecutionTime = 657.07 s  ClockTime = 658 s

writeObjects writeObjects1.writeObjects write:
    writing object a
    writing object qem
End

