/*---------------------------------------------------------------------------*\
| =========                 |                                                 |
| \\      /  F ield         | OpenFOAM: The Open Source CFD Toolbox           |
|  \\    /   O peration     | Version:  2306                                  |
|   \\  /    A nd           | Website:  www.openfoam.com                      |
|    \\/     M anipulation  |                                                 |
\*---------------------------------------------------------------------------*/
Build  : _fbf00d6b-20230626 OPENFOAM=2306 version=2306
Arch   : "LSB;label=32;scalar=64"
Exec   : fireRADFoam_MaCFP
Date   : Mar 12 2024
Time   : 20:06:11
Host   : pop-os
PID    : 176214
I/O    : uncollated
Case   : /home/rafay/Desktop/Study/Radiative_Heat_Transfer/Local_copy_RHT2324/01_Projects/02_Rafay/Case_1_q1D_SolidAngle/new_case3/th_6-ph_12/tau_0.0001/res_4
nProcs : 1
trapFpe: Floating point exception trapping enabled (FOAM_SIGFPE).
fileModificationChecking : Monitoring run-time modified files using timeStampMaster (fileModificationSkew 5, maxFileModificationPolls 20)
allowSystemOperations : Allowing user-supplied system call operations

// * * * * * * * * * * * * * * * * * * * * * * * * * * * * * * * * * * * * * //
Create time

Create mesh for time = 0


PIMPLE: no residual control data found. Calculations will employ 10 corrector loops

Reading thermophysical properties

Selecting thermodynamics package 
{
    type            hePsiThermo;
    mixture         singleStepReactingMixture;
    transport       sutherland;
    thermo          janaf;
    energy          sensibleEnthalpy;
    equationOfState perfectGas;
    specie          specie;
}

Selecting chemistryReader foamChemistryReader
    elements not defined in "/home/rafay/Desktop/Study/Radiative_Heat_Transfer/Local_copy_RHT2324/01_Projects/02_Rafay/Case_1_q1D_SolidAngle/new_case3/th_6-ph_12/tau_0.0001/res_4/constant/reactions"
Fuel heat of combustion :47168962.4726
stoichiometric air-fuel ratio :14.6914056505
stoichiometric oxygen-fuel ratio :3.42181919285
Maximum products mass concentrations:
    H2O: 0.0818486943001
    CO2: 0.199950099979
    N2: 0.718201205721
Creating component thermo properties:
    multi-component carrier - 6 species
    no liquid components
    no solid components
Creating field rho


Reading field U

Reading/calculating face flux field phi

Selecting radiationModel fvDOM
Selecting absorptionEmissionModel constantAbsorptionEmission
Selecting scatterModel none
Selecting sootModel none
fvDOM : Allocated 288 rays with average orientation:
	I0 : dAve : 	(0.000387488209079 0.00591192763451 0.0163624617374) : omega : 	0.0175372336349 : d : 	(0.0169275754541 0.25826489366 0.965925826289)
	I1 : dAve : 	(0.00115583459655 0.00581077291359 0.0163624617374) : omega : 	0.0175372336349 : d : 	(0.050493090853 0.253845909725 0.965925826289)
	I2 : dAve : 	(0.00190440433361 0.00561019425706 0.0163624617374) : omega : 	0.0175372336349 : d : 	(0.083194655468 0.245083551895 0.965925826289)
	I3 : dAve : 	(0.00262038918453 0.00531362362136 0.0163624617374) : omega : 	0.0175372336349 : d : 	(0.114472736462 0.232127746542 0.965925826289)
	I4 : dAve : 	(0.00329153844998 0.00492613541228 0.0163624617374) : omega : 	0.0175372336349 : d : 	(0.143792157198 0.215200171088 0.965925826289)
	I5 : dAve : 	(0.00390636857998 0.00445435966052 0.0163624617374) : omega : 	0.0175372336349 : d : 	(0.170651254257 0.194590461042 0.965925826289)
	I6 : dAve : 	(0.00445435966052 0.00390636857998 0.0163624617374) : omega : 	0.0175372336349 : d : 	(0.194590461042 0.170651254257 0.965925826289)
	I7 : dAve : 	(0.00492613541228 0.00329153844998 0.0163624617374) : omega : 	0.0175372336349 : d : 	(0.215200171088 0.143792157198 0.965925826289)
	I8 : dAve : 	(0.00531362362136 0.00262038918453 0.0163624617374) : omega : 	0.0175372336349 : d : 	(0.232127746542 0.114472736462 0.965925826289)
	I9 : dAve : 	(0.00561019425706 0.00190440433361 0.0163624617374) : omega : 	0.0175372336349 : d : 	(0.245083551895 0.083194655468 0.965925826289)
	I10 : dAve : 	(0.00581077291359 0.00115583459655 0.0163624617374) : omega : 	0.0175372336349 : d : 	(0.253845909725 0.050493090853 0.965925826289)
	I11 : dAve : 	(0.00591192763451 0.000387488209079 0.0163624617374) : omega : 	0.0175372336349 : d : 	(0.25826489366 0.0169275754541 0.965925826289)
	I12 : dAve : 	(0.00591192763451 -0.000387488209079 0.0163624617374) : omega : 	0.0175372336349 : d : 	(0.25826489366 -0.0169275754541 0.965925826289)
	I13 : dAve : 	(0.00581077291359 -0.00115583459655 0.0163624617374) : omega : 	0.0175372336349 : d : 	(0.253845909725 -0.050493090853 0.965925826289)
	I14 : dAve : 	(0.00561019425706 -0.00190440433361 0.0163624617374) : omega : 	0.0175372336349 : d : 	(0.245083551895 -0.083194655468 0.965925826289)
	I15 : dAve : 	(0.00531362362136 -0.00262038918453 0.0163624617374) : omega : 	0.0175372336349 : d : 	(0.232127746542 -0.114472736462 0.965925826289)
	I16 : dAve : 	(0.00492613541228 -0.00329153844998 0.0163624617374) : omega : 	0.0175372336349 : d : 	(0.215200171088 -0.143792157198 0.965925826289)
	I17 : dAve : 	(0.00445435966052 -0.00390636857998 0.0163624617374) : omega : 	0.0175372336349 : d : 	(0.194590461042 -0.170651254257 0.965925826289)
	I18 : dAve : 	(0.00390636857998 -0.00445435966052 0.0163624617374) : omega : 	0.0175372336349 : d : 	(0.170651254257 -0.194590461042 0.965925826289)
	I19 : dAve : 	(0.00329153844998 -0.00492613541228 0.0163624617374) : omega : 	0.0175372336349 : d : 	(0.143792157198 -0.215200171088 0.965925826289)
	I20 : dAve : 	(0.00262038918453 -0.00531362362136 0.0163624617374) : omega : 	0.0175372336349 : d : 	(0.114472736462 -0.232127746542 0.965925826289)
	I21 : dAve : 	(0.00190440433361 -0.00561019425706 0.0163624617374) : omega : 	0.0175372336349 : d : 	(0.083194655468 -0.245083551895 0.965925826289)
	I22 : dAve : 	(0.00115583459655 -0.00581077291359 0.0163624617374) : omega : 	0.0175372336349 : d : 	(0.050493090853 -0.253845909725 0.965925826289)
	I23 : dAve : 	(0.000387488209079 -0.00591192763451 0.0163624617374) : omega : 	0.0175372336349 : d : 	(0.0169275754541 -0.25826489366 0.965925826289)
	I24 : dAve : 	(-0.000387488209079 -0.00591192763451 0.0163624617374) : omega : 	0.0175372336349 : d : 	(-0.0169275754541 -0.25826489366 0.965925826289)
	I25 : dAve : 	(-0.00115583459655 -0.00581077291359 0.0163624617374) : omega : 	0.0175372336349 : d : 	(-0.050493090853 -0.253845909725 0.965925826289)
	I26 : dAve : 	(-0.00190440433361 -0.00561019425706 0.0163624617374) : omega : 	0.0175372336349 : d : 	(-0.083194655468 -0.245083551895 0.965925826289)
	I27 : dAve : 	(-0.00262038918453 -0.00531362362136 0.0163624617374) : omega : 	0.0175372336349 : d : 	(-0.114472736462 -0.232127746542 0.965925826289)
	I28 : dAve : 	(-0.00329153844998 -0.00492613541228 0.0163624617374) : omega : 	0.0175372336349 : d : 	(-0.143792157198 -0.215200171088 0.965925826289)
	I29 : dAve : 	(-0.00390636857998 -0.00445435966052 0.0163624617374) : omega : 	0.0175372336349 : d : 	(-0.170651254257 -0.194590461042 0.965925826289)
	I30 : dAve : 	(-0.00445435966052 -0.00390636857998 0.0163624617374) : omega : 	0.0175372336349 : d : 	(-0.194590461042 -0.170651254257 0.965925826289)
	I31 : dAve : 	(-0.00492613541228 -0.00329153844998 0.0163624617374) : omega : 	0.0175372336349 : d : 	(-0.215200171088 -0.143792157198 0.965925826289)
	I32 : dAve : 	(-0.00531362362136 -0.00262038918453 0.0163624617374) : omega : 	0.0175372336349 : d : 	(-0.232127746542 -0.114472736462 0.965925826289)
	I33 : dAve : 	(-0.00561019425706 -0.00190440433361 0.0163624617374) : omega : 	0.0175372336349 : d : 	(-0.245083551895 -0.083194655468 0.965925826289)
	I34 : dAve : 	(-0.00581077291359 -0.00115583459655 0.0163624617374) : omega : 	0.0175372336349 : d : 	(-0.253845909725 -0.050493090853 0.965925826289)
	I35 : dAve : 	(-0.00591192763451 -0.000387488209079 0.0163624617374) : omega : 	0.0175372336349 : d : 	(-0.25826489366 -0.0169275754541 0.965925826289)
	I36 : dAve : 	(-0.00591192763451 0.000387488209079 0.0163624617374) : omega : 	0.0175372336349 : d : 	(-0.25826489366 0.0169275754541 0.965925826289)
	I37 : dAve : 	(-0.00581077291359 0.00115583459655 0.0163624617374) : omega : 	0.0175372336349 : d : 	(-0.253845909725 0.050493090853 0.965925826289)
	I38 : dAve : 	(-0.00561019425706 0.00190440433361 0.0163624617374) : omega : 	0.0175372336349 : d : 	(-0.245083551895 0.083194655468 0.965925826289)
	I39 : dAve : 	(-0.00531362362136 0.00262038918453 0.0163624617374) : omega : 	0.0175372336349 : d : 	(-0.232127746542 0.114472736462 0.965925826289)
	I40 : dAve : 	(-0.00492613541228 0.00329153844998 0.0163624617374) : omega : 	0.0175372336349 : d : 	(-0.215200171088 0.143792157198 0.965925826289)
	I41 : dAve : 	(-0.00445435966052 0.00390636857998 0.0163624617374) : omega : 	0.0175372336349 : d : 	(-0.194590461042 0.170651254257 0.965925826289)
	I42 : dAve : 	(-0.00390636857998 0.00445435966052 0.0163624617374) : omega : 	0.0175372336349 : d : 	(-0.170651254257 0.194590461042 0.965925826289)
	I43 : dAve : 	(-0.00329153844998 0.00492613541228 0.0163624617374) : omega : 	0.0175372336349 : d : 	(-0.143792157198 0.215200171088 0.965925826289)
	I44 : dAve : 	(-0.00262038918453 0.00531362362136 0.0163624617374) : omega : 	0.0175372336349 : d : 	(-0.114472736462 0.232127746542 0.965925826289)
	I45 : dAve : 	(-0.00190440433361 0.00561019425706 0.0163624617374) : omega : 	0.0175372336349 : d : 	(-0.083194655468 0.245083551895 0.965925826289)
	I46 : dAve : 	(-0.00115583459655 0.00581077291359 0.0163624617374) : omega : 	0.0175372336349 : d : 	(-0.050493090853 0.253845909725 0.965925826289)
	I47 : dAve : 	(-0.000387488209079 0.00591192763451 0.0163624617374) : omega : 	0.0175372336349 : d : 	(-0.0169275754541 0.25826489366 0.965925826289)
	I48 : dAve : 	(0.00223973005487 0.034171677215 0.0327249234749) : omega : 	0.0479126133149 : d : 	(0.0462469961895 0.70559281129 0.707106781187)
	I49 : dAve : 	(0.00668086776241 0.0335869903436 0.0327249234749) : omega : 	0.0479126133149 : d : 	(0.137949689641 0.693519922661 0.707106781187)
	I50 : dAve : 	(0.0110076939702 0.0324276207555 0.0327249234749) : omega : 	0.0479126133149 : d : 	(0.227292025657 0.669580715876 0.707106781187)
	I51 : dAve : 	(0.0151461754823 0.0307134055855 0.0327249234749) : omega : 	0.0479126133149 : d : 	(0.312745332096 0.634184797399 0.707106781187)
	I52 : dAve : 	(0.0190255017326 0.0284736755306 0.0327249234749) : omega : 	0.0479126133149 : d : 	(0.392847479194 0.58793780121 0.707106781187)
	I53 : dAve : 	(0.0225792963734 0.025746752993 0.0327249234749) : omega : 	0.0479126133149 : d : 	(0.466227897004 0.531631026234 0.707106781187)
	I54 : dAve : 	(0.025746752993 0.0225792963734 0.0327249234749) : omega : 	0.0479126133149 : d : 	(0.531631026234 0.466227897004 0.707106781187)
	I55 : dAve : 	(0.0284736755306 0.0190255017326 0.0327249234749) : omega : 	0.0479126133149 : d : 	(0.58793780121 0.392847479194 0.707106781187)
	I56 : dAve : 	(0.0307134055855 0.0151461754823 0.0327249234749) : omega : 	0.0479126133149 : d : 	(0.634184797399 0.312745332096 0.707106781187)
	I57 : dAve : 	(0.0324276207555 0.0110076939702 0.0327249234749) : omega : 	0.0479126133149 : d : 	(0.669580715876 0.227292025657 0.707106781187)
	I58 : dAve : 	(0.0335869903436 0.00668086776241 0.0327249234749) : omega : 	0.0479126133149 : d : 	(0.693519922661 0.137949689641 0.707106781187)
	I59 : dAve : 	(0.034171677215 0.00223973005487 0.0327249234749) : omega : 	0.0479126133149 : d : 	(0.70559281129 0.0462469961895 0.707106781187)
	I60 : dAve : 	(0.034171677215 -0.00223973005487 0.0327249234749) : omega : 	0.0479126133149 : d : 	(0.70559281129 -0.0462469961895 0.707106781187)
	I61 : dAve : 	(0.0335869903436 -0.00668086776241 0.0327249234749) : omega : 	0.0479126133149 : d : 	(0.693519922661 -0.137949689641 0.707106781187)
	I62 : dAve : 	(0.0324276207555 -0.0110076939702 0.0327249234749) : omega : 	0.0479126133149 : d : 	(0.669580715876 -0.227292025657 0.707106781187)
	I63 : dAve : 	(0.0307134055855 -0.0151461754823 0.0327249234749) : omega : 	0.0479126133149 : d : 	(0.634184797399 -0.312745332096 0.707106781187)
	I64 : dAve : 	(0.0284736755306 -0.0190255017326 0.0327249234749) : omega : 	0.0479126133149 : d : 	(0.58793780121 -0.392847479194 0.707106781187)
	I65 : dAve : 	(0.025746752993 -0.0225792963734 0.0327249234749) : omega : 	0.0479126133149 : d : 	(0.531631026234 -0.466227897004 0.707106781187)
	I66 : dAve : 	(0.0225792963734 -0.025746752993 0.0327249234749) : omega : 	0.0479126133149 : d : 	(0.466227897004 -0.531631026234 0.707106781187)
	I67 : dAve : 	(0.0190255017326 -0.0284736755306 0.0327249234749) : omega : 	0.0479126133149 : d : 	(0.392847479194 -0.58793780121 0.707106781187)
	I68 : dAve : 	(0.0151461754823 -0.0307134055855 0.0327249234749) : omega : 	0.0479126133149 : d : 	(0.312745332096 -0.634184797399 0.707106781187)
	I69 : dAve : 	(0.0110076939702 -0.0324276207555 0.0327249234749) : omega : 	0.0479126133149 : d : 	(0.227292025657 -0.669580715876 0.707106781187)
	I70 : dAve : 	(0.00668086776241 -0.0335869903436 0.0327249234749) : omega : 	0.0479126133149 : d : 	(0.137949689641 -0.693519922661 0.707106781187)
	I71 : dAve : 	(0.00223973005487 -0.034171677215 0.0327249234749) : omega : 	0.0479126133149 : d : 	(0.0462469961895 -0.70559281129 0.707106781187)
	I72 : dAve : 	(-0.00223973005487 -0.034171677215 0.0327249234749) : omega : 	0.0479126133149 : d : 	(-0.0462469961895 -0.70559281129 0.707106781187)
	I73 : dAve : 	(-0.00668086776241 -0.0335869903436 0.0327249234749) : omega : 	0.0479126133149 : d : 	(-0.137949689641 -0.693519922661 0.707106781187)
	I74 : dAve : 	(-0.0110076939702 -0.0324276207555 0.0327249234749) : omega : 	0.0479126133149 : d : 	(-0.227292025657 -0.669580715876 0.707106781187)
	I75 : dAve : 	(-0.0151461754823 -0.0307134055855 0.0327249234749) : omega : 	0.0479126133149 : d : 	(-0.312745332096 -0.634184797399 0.707106781187)
	I76 : dAve : 	(-0.0190255017326 -0.0284736755306 0.0327249234749) : omega : 	0.0479126133149 : d : 	(-0.392847479194 -0.58793780121 0.707106781187)
	I77 : dAve : 	(-0.0225792963734 -0.025746752993 0.0327249234749) : omega : 	0.0479126133149 : d : 	(-0.466227897004 -0.531631026234 0.707106781187)
	I78 : dAve : 	(-0.025746752993 -0.0225792963734 0.0327249234749) : omega : 	0.0479126133149 : d : 	(-0.531631026234 -0.466227897004 0.707106781187)
	I79 : dAve : 	(-0.0284736755306 -0.0190255017326 0.0327249234749) : omega : 	0.0479126133149 : d : 	(-0.58793780121 -0.392847479194 0.707106781187)
	I80 : dAve : 	(-0.0307134055855 -0.0151461754823 0.0327249234749) : omega : 	0.0479126133149 : d : 	(-0.634184797399 -0.312745332096 0.707106781187)
	I81 : dAve : 	(-0.0324276207555 -0.0110076939702 0.0327249234749) : omega : 	0.0479126133149 : d : 	(-0.669580715876 -0.227292025657 0.707106781187)
	I82 : dAve : 	(-0.0335869903436 -0.00668086776241 0.0327249234749) : omega : 	0.0479126133149 : d : 	(-0.693519922661 -0.137949689641 0.707106781187)
	I83 : dAve : 	(-0.034171677215 -0.00223973005487 0.0327249234749) : omega : 	0.0479126133149 : d : 	(-0.70559281129 -0.0462469961895 0.707106781187)
	I84 : dAve : 	(-0.034171677215 0.00223973005487 0.0327249234749) : omega : 	0.0479126133149 : d : 	(-0.70559281129 0.0462469961895 0.707106781187)
	I85 : dAve : 	(-0.0335869903436 0.00668086776241 0.0327249234749) : omega : 	0.0479126133149 : d : 	(-0.693519922661 0.137949689641 0.707106781187)
	I86 : dAve : 	(-0.0324276207555 0.0110076939702 0.0327249234749) : omega : 	0.0479126133149 : d : 	(-0.669580715876 0.227292025657 0.707106781187)
	I87 : dAve : 	(-0.0307134055855 0.0151461754823 0.0327249234749) : omega : 	0.0479126133149 : d : 	(-0.634184797399 0.312745332096 0.707106781187)
	I88 : dAve : 	(-0.0284736755306 0.0190255017326 0.0327249234749) : omega : 	0.0479126133149 : d : 	(-0.58793780121 0.392847479194 0.707106781187)
	I89 : dAve : 	(-0.025746752993 0.0225792963734 0.0327249234749) : omega : 	0.0479126133149 : d : 	(-0.531631026234 0.466227897004 0.707106781187)
	I90 : dAve : 	(-0.0225792963734 0.025746752993 0.0327249234749) : omega : 	0.0479126133149 : d : 	(-0.466227897004 0.531631026234 0.707106781187)
	I91 : dAve : 	(-0.0190255017326 0.0284736755306 0.0327249234749) : omega : 	0.0479126133149 : d : 	(-0.392847479194 0.58793780121 0.707106781187)
	I92 : dAve : 	(-0.0151461754823 0.0307134055855 0.0327249234749) : omega : 	0.0479126133149 : d : 	(-0.312745332096 0.634184797399 0.707106781187)
	I93 : dAve : 	(-0.0110076939702 0.0324276207555 0.0327249234749) : omega : 	0.0479126133149 : d : 	(-0.227292025657 0.669580715876 0.707106781187)
	I94 : dAve : 	(-0.00668086776241 0.0335869903436 0.0327249234749) : omega : 	0.0479126133149 : d : 	(-0.137949689641 0.693519922661 0.707106781187)
	I95 : dAve : 	(-0.00223973005487 0.034171677215 0.0327249234749) : omega : 	0.0479126133149 : d : 	(-0.0462469961895 0.70559281129 0.707106781187)
	I96 : dAve : 	(0.00409197190067 0.0624314267954 0.0163624617374) : omega : 	0.0654498469498 : d : 	(0.0631745716435 0.963857704949 0.258819045103)
	I97 : dAve : 	(0.0122059009283 0.0613632077737 0.0163624617374) : omega : 	0.0654498469498 : d : 	(0.188442780494 0.947365832386 0.258819045103)
	I98 : dAve : 	(0.0201109836069 0.0592450472539 0.0163624617374) : omega : 	0.0654498469498 : d : 	(0.310486681125 0.914664267771 0.258819045103)
	I99 : dAve : 	(0.0276719617802 0.0561131875497 0.0163624617374) : omega : 	0.0654498469498 : d : 	(0.427218068558 0.866312543941 0.258819045103)
	I100 : dAve : 	(0.0347594650153 0.052021215649 0.0163624617374) : omega : 	0.0654498469498 : d : 	(0.536639636391 0.803137972298 0.258819045103)
	I101 : dAve : 	(0.0412522241668 0.0470391463256 0.0163624617374) : omega : 	0.0654498469498 : d : 	(0.636879151261 0.726221487276 0.258819045103)
	I102 : dAve : 	(0.0470391463256 0.0412522241668 0.0163624617374) : omega : 	0.0654498469498 : d : 	(0.726221487276 0.636879151261 0.258819045103)
	I103 : dAve : 	(0.052021215649 0.0347594650153 0.0163624617374) : omega : 	0.0654498469498 : d : 	(0.803137972298 0.536639636391 0.258819045103)
	I104 : dAve : 	(0.0561131875497 0.0276719617802 0.0163624617374) : omega : 	0.0654498469498 : d : 	(0.866312543941 0.427218068558 0.258819045103)
	I105 : dAve : 	(0.0592450472539 0.0201109836069 0.0163624617374) : omega : 	0.0654498469498 : d : 	(0.914664267771 0.310486681125 0.258819045103)
	I106 : dAve : 	(0.0613632077737 0.0122059009283 0.0163624617374) : omega : 	0.0654498469498 : d : 	(0.947365832386 0.188442780494 0.258819045103)
	I107 : dAve : 	(0.0624314267954 0.00409197190067 0.0163624617374) : omega : 	0.0654498469498 : d : 	(0.963857704949 0.0631745716435 0.258819045103)
	I108 : dAve : 	(0.0624314267954 -0.00409197190067 0.0163624617374) : omega : 	0.0654498469498 : d : 	(0.963857704949 -0.0631745716435 0.258819045103)
	I109 : dAve : 	(0.0613632077737 -0.0122059009283 0.0163624617374) : omega : 	0.0654498469498 : d : 	(0.947365832386 -0.188442780494 0.258819045103)
	I110 : dAve : 	(0.0592450472539 -0.0201109836069 0.0163624617374) : omega : 	0.0654498469498 : d : 	(0.914664267771 -0.310486681125 0.258819045103)
	I111 : dAve : 	(0.0561131875497 -0.0276719617802 0.0163624617374) : omega : 	0.0654498469498 : d : 	(0.866312543941 -0.427218068558 0.258819045103)
	I112 : dAve : 	(0.052021215649 -0.0347594650153 0.0163624617374) : omega : 	0.0654498469498 : d : 	(0.803137972298 -0.536639636391 0.258819045103)
	I113 : dAve : 	(0.0470391463256 -0.0412522241668 0.0163624617374) : omega : 	0.0654498469498 : d : 	(0.726221487276 -0.636879151261 0.258819045103)
	I114 : dAve : 	(0.0412522241668 -0.0470391463256 0.0163624617374) : omega : 	0.0654498469498 : d : 	(0.636879151261 -0.726221487276 0.258819045103)
	I115 : dAve : 	(0.0347594650153 -0.052021215649 0.0163624617374) : omega : 	0.0654498469498 : d : 	(0.536639636391 -0.803137972298 0.258819045103)
	I116 : dAve : 	(0.0276719617802 -0.0561131875497 0.0163624617374) : omega : 	0.0654498469498 : d : 	(0.427218068558 -0.866312543941 0.258819045103)
	I117 : dAve : 	(0.0201109836069 -0.0592450472539 0.0163624617374) : omega : 	0.0654498469498 : d : 	(0.310486681125 -0.914664267771 0.258819045103)
	I118 : dAve : 	(0.0122059009283 -0.0613632077737 0.0163624617374) : omega : 	0.0654498469498 : d : 	(0.188442780494 -0.947365832386 0.258819045103)
	I119 : dAve : 	(0.00409197190067 -0.0624314267954 0.0163624617374) : omega : 	0.0654498469498 : d : 	(0.0631745716435 -0.963857704949 0.258819045103)
	I120 : dAve : 	(-0.00409197190067 -0.0624314267954 0.0163624617374) : omega : 	0.0654498469498 : d : 	(-0.0631745716435 -0.963857704949 0.258819045103)
	I121 : dAve : 	(-0.0122059009283 -0.0613632077737 0.0163624617374) : omega : 	0.0654498469498 : d : 	(-0.188442780494 -0.947365832386 0.258819045103)
	I122 : dAve : 	(-0.0201109836069 -0.0592450472539 0.0163624617374) : omega : 	0.0654498469498 : d : 	(-0.310486681125 -0.914664267771 0.258819045103)
	I123 : dAve : 	(-0.0276719617802 -0.0561131875497 0.0163624617374) : omega : 	0.0654498469498 : d : 	(-0.427218068558 -0.866312543941 0.258819045103)
	I124 : dAve : 	(-0.0347594650153 -0.052021215649 0.0163624617374) : omega : 	0.0654498469498 : d : 	(-0.536639636391 -0.803137972298 0.258819045103)
	I125 : dAve : 	(-0.0412522241668 -0.0470391463256 0.0163624617374) : omega : 	0.0654498469498 : d : 	(-0.636879151261 -0.726221487276 0.258819045103)
	I126 : dAve : 	(-0.0470391463256 -0.0412522241668 0.0163624617374) : omega : 	0.0654498469498 : d : 	(-0.726221487276 -0.636879151261 0.258819045103)
	I127 : dAve : 	(-0.052021215649 -0.0347594650153 0.0163624617374) : omega : 	0.0654498469498 : d : 	(-0.803137972298 -0.536639636391 0.258819045103)
	I128 : dAve : 	(-0.0561131875497 -0.0276719617802 0.0163624617374) : omega : 	0.0654498469498 : d : 	(-0.866312543941 -0.427218068558 0.258819045103)
	I129 : dAve : 	(-0.0592450472539 -0.0201109836069 0.0163624617374) : omega : 	0.0654498469498 : d : 	(-0.914664267771 -0.310486681125 0.258819045103)
	I130 : dAve : 	(-0.0613632077737 -0.0122059009283 0.0163624617374) : omega : 	0.0654498469498 : d : 	(-0.947365832386 -0.188442780494 0.258819045103)
	I131 : dAve : 	(-0.0624314267954 -0.00409197190067 0.0163624617374) : omega : 	0.0654498469498 : d : 	(-0.963857704949 -0.0631745716435 0.258819045103)
	I132 : dAve : 	(-0.0624314267954 0.00409197190067 0.0163624617374) : omega : 	0.0654498469498 : d : 	(-0.963857704949 0.0631745716435 0.258819045103)
	I133 : dAve : 	(-0.0613632077737 0.0122059009283 0.0163624617374) : omega : 	0.0654498469498 : d : 	(-0.947365832386 0.188442780494 0.258819045103)
	I134 : dAve : 	(-0.0592450472539 0.0201109836069 0.0163624617374) : omega : 	0.0654498469498 : d : 	(-0.914664267771 0.310486681125 0.258819045103)
	I135 : dAve : 	(-0.0561131875497 0.0276719617802 0.0163624617374) : omega : 	0.0654498469498 : d : 	(-0.866312543941 0.427218068558 0.258819045103)
	I136 : dAve : 	(-0.052021215649 0.0347594650153 0.0163624617374) : omega : 	0.0654498469498 : d : 	(-0.803137972298 0.536639636391 0.258819045103)
	I137 : dAve : 	(-0.0470391463256 0.0412522241668 0.0163624617374) : omega : 	0.0654498469498 : d : 	(-0.726221487276 0.636879151261 0.258819045103)
	I138 : dAve : 	(-0.0412522241668 0.0470391463256 0.0163624617374) : omega : 	0.0654498469498 : d : 	(-0.636879151261 0.726221487276 0.258819045103)
	I139 : dAve : 	(-0.0347594650153 0.052021215649 0.0163624617374) : omega : 	0.0654498469498 : d : 	(-0.536639636391 0.803137972298 0.258819045103)
	I140 : dAve : 	(-0.0276719617802 0.0561131875497 0.0163624617374) : omega : 	0.0654498469498 : d : 	(-0.427218068558 0.866312543941 0.258819045103)
	I141 : dAve : 	(-0.0201109836069 0.0592450472539 0.0163624617374) : omega : 	0.0654498469498 : d : 	(-0.310486681125 0.914664267771 0.258819045103)
	I142 : dAve : 	(-0.0122059009283 0.0613632077737 0.0163624617374) : omega : 	0.0654498469498 : d : 	(-0.188442780494 0.947365832386 0.258819045103)
	I143 : dAve : 	(-0.00409197190067 0.0624314267954 0.0163624617374) : omega : 	0.0654498469498 : d : 	(-0.0631745716435 0.963857704949 0.258819045103)
	I144 : dAve : 	(0.00409197190067 0.0624314267954 -0.0163624617374) : omega : 	0.0654498469498 : d : 	(0.0631745716435 0.963857704949 -0.258819045103)
	I145 : dAve : 	(0.0122059009283 0.0613632077737 -0.0163624617374) : omega : 	0.0654498469498 : d : 	(0.188442780494 0.947365832386 -0.258819045103)
	I146 : dAve : 	(0.0201109836069 0.0592450472539 -0.0163624617374) : omega : 	0.0654498469498 : d : 	(0.310486681125 0.914664267771 -0.258819045103)
	I147 : dAve : 	(0.0276719617802 0.0561131875497 -0.0163624617374) : omega : 	0.0654498469498 : d : 	(0.427218068558 0.866312543941 -0.258819045103)
	I148 : dAve : 	(0.0347594650153 0.052021215649 -0.0163624617374) : omega : 	0.0654498469498 : d : 	(0.536639636391 0.803137972298 -0.258819045103)
	I149 : dAve : 	(0.0412522241668 0.0470391463256 -0.0163624617374) : omega : 	0.0654498469498 : d : 	(0.636879151261 0.726221487276 -0.258819045103)
	I150 : dAve : 	(0.0470391463256 0.0412522241668 -0.0163624617374) : omega : 	0.0654498469498 : d : 	(0.726221487276 0.636879151261 -0.258819045103)
	I151 : dAve : 	(0.052021215649 0.0347594650153 -0.0163624617374) : omega : 	0.0654498469498 : d : 	(0.803137972298 0.536639636391 -0.258819045103)
	I152 : dAve : 	(0.0561131875497 0.0276719617802 -0.0163624617374) : omega : 	0.0654498469498 : d : 	(0.866312543941 0.427218068558 -0.258819045103)
	I153 : dAve : 	(0.0592450472539 0.0201109836069 -0.0163624617374) : omega : 	0.0654498469498 : d : 	(0.914664267771 0.310486681125 -0.258819045103)
	I154 : dAve : 	(0.0613632077737 0.0122059009283 -0.0163624617374) : omega : 	0.0654498469498 : d : 	(0.947365832386 0.188442780494 -0.258819045103)
	I155 : dAve : 	(0.0624314267954 0.00409197190067 -0.0163624617374) : omega : 	0.0654498469498 : d : 	(0.963857704949 0.0631745716435 -0.258819045103)
	I156 : dAve : 	(0.0624314267954 -0.00409197190067 -0.0163624617374) : omega : 	0.0654498469498 : d : 	(0.963857704949 -0.0631745716435 -0.258819045103)
	I157 : dAve : 	(0.0613632077737 -0.0122059009283 -0.0163624617374) : omega : 	0.0654498469498 : d : 	(0.947365832386 -0.188442780494 -0.258819045103)
	I158 : dAve : 	(0.0592450472539 -0.0201109836069 -0.0163624617374) : omega : 	0.0654498469498 : d : 	(0.914664267771 -0.310486681125 -0.258819045103)
	I159 : dAve : 	(0.0561131875497 -0.0276719617802 -0.0163624617374) : omega : 	0.0654498469498 : d : 	(0.866312543941 -0.427218068558 -0.258819045103)
	I160 : dAve : 	(0.052021215649 -0.0347594650153 -0.0163624617374) : omega : 	0.0654498469498 : d : 	(0.803137972298 -0.536639636391 -0.258819045103)
	I161 : dAve : 	(0.0470391463256 -0.0412522241668 -0.0163624617374) : omega : 	0.0654498469498 : d : 	(0.726221487276 -0.636879151261 -0.258819045103)
	I162 : dAve : 	(0.0412522241668 -0.0470391463256 -0.0163624617374) : omega : 	0.0654498469498 : d : 	(0.636879151261 -0.726221487276 -0.258819045103)
	I163 : dAve : 	(0.0347594650153 -0.052021215649 -0.0163624617374) : omega : 	0.0654498469498 : d : 	(0.536639636391 -0.803137972298 -0.258819045103)
	I164 : dAve : 	(0.0276719617802 -0.0561131875497 -0.0163624617374) : omega : 	0.0654498469498 : d : 	(0.427218068558 -0.866312543941 -0.258819045103)
	I165 : dAve : 	(0.0201109836069 -0.0592450472539 -0.0163624617374) : omega : 	0.0654498469498 : d : 	(0.310486681125 -0.914664267771 -0.258819045103)
	I166 : dAve : 	(0.0122059009283 -0.0613632077737 -0.0163624617374) : omega : 	0.0654498469498 : d : 	(0.188442780494 -0.947365832386 -0.258819045103)
	I167 : dAve : 	(0.00409197190067 -0.0624314267954 -0.0163624617374) : omega : 	0.0654498469498 : d : 	(0.0631745716435 -0.963857704949 -0.258819045103)
	I168 : dAve : 	(-0.00409197190067 -0.0624314267954 -0.0163624617374) : omega : 	0.0654498469498 : d : 	(-0.0631745716435 -0.963857704949 -0.258819045103)
	I169 : dAve : 	(-0.0122059009283 -0.0613632077737 -0.0163624617374) : omega : 	0.0654498469498 : d : 	(-0.188442780494 -0.947365832386 -0.258819045103)
	I170 : dAve : 	(-0.0201109836069 -0.0592450472539 -0.0163624617374) : omega : 	0.0654498469498 : d : 	(-0.310486681125 -0.914664267771 -0.258819045103)
	I171 : dAve : 	(-0.0276719617802 -0.0561131875497 -0.0163624617374) : omega : 	0.0654498469498 : d : 	(-0.427218068558 -0.866312543941 -0.258819045103)
	I172 : dAve : 	(-0.0347594650153 -0.052021215649 -0.0163624617374) : omega : 	0.0654498469498 : d : 	(-0.536639636391 -0.803137972298 -0.258819045103)
	I173 : dAve : 	(-0.0412522241668 -0.0470391463256 -0.0163624617374) : omega : 	0.0654498469498 : d : 	(-0.636879151261 -0.726221487276 -0.258819045103)
	I174 : dAve : 	(-0.0470391463256 -0.0412522241668 -0.0163624617374) : omega : 	0.0654498469498 : d : 	(-0.726221487276 -0.636879151261 -0.258819045103)
	I175 : dAve : 	(-0.052021215649 -0.0347594650153 -0.0163624617374) : omega : 	0.0654498469498 : d : 	(-0.803137972298 -0.536639636391 -0.258819045103)
	I176 : dAve : 	(-0.0561131875497 -0.0276719617802 -0.0163624617374) : omega : 	0.0654498469498 : d : 	(-0.866312543941 -0.427218068558 -0.258819045103)
	I177 : dAve : 	(-0.0592450472539 -0.0201109836069 -0.0163624617374) : omega : 	0.0654498469498 : d : 	(-0.914664267771 -0.310486681125 -0.258819045103)
	I178 : dAve : 	(-0.0613632077737 -0.0122059009283 -0.0163624617374) : omega : 	0.0654498469498 : d : 	(-0.947365832386 -0.188442780494 -0.258819045103)
	I179 : dAve : 	(-0.0624314267954 -0.00409197190067 -0.0163624617374) : omega : 	0.0654498469498 : d : 	(-0.963857704949 -0.0631745716435 -0.258819045103)
	I180 : dAve : 	(-0.0624314267954 0.00409197190067 -0.0163624617374) : omega : 	0.0654498469498 : d : 	(-0.963857704949 0.0631745716435 -0.258819045103)
	I181 : dAve : 	(-0.0613632077737 0.0122059009283 -0.0163624617374) : omega : 	0.0654498469498 : d : 	(-0.947365832386 0.188442780494 -0.258819045103)
	I182 : dAve : 	(-0.0592450472539 0.0201109836069 -0.0163624617374) : omega : 	0.0654498469498 : d : 	(-0.914664267771 0.310486681125 -0.258819045103)
	I183 : dAve : 	(-0.0561131875497 0.0276719617802 -0.0163624617374) : omega : 	0.0654498469498 : d : 	(-0.866312543941 0.427218068558 -0.258819045103)
	I184 : dAve : 	(-0.052021215649 0.0347594650153 -0.0163624617374) : omega : 	0.0654498469498 : d : 	(-0.803137972298 0.536639636391 -0.258819045103)
	I185 : dAve : 	(-0.0470391463256 0.0412522241668 -0.0163624617374) : omega : 	0.0654498469498 : d : 	(-0.726221487276 0.636879151261 -0.258819045103)
	I186 : dAve : 	(-0.0412522241668 0.0470391463256 -0.0163624617374) : omega : 	0.0654498469498 : d : 	(-0.636879151261 0.726221487276 -0.258819045103)
	I187 : dAve : 	(-0.0347594650153 0.052021215649 -0.0163624617374) : omega : 	0.0654498469498 : d : 	(-0.536639636391 0.803137972298 -0.258819045103)
	I188 : dAve : 	(-0.0276719617802 0.0561131875497 -0.0163624617374) : omega : 	0.0654498469498 : d : 	(-0.427218068558 0.866312543941 -0.258819045103)
	I189 : dAve : 	(-0.0201109836069 0.0592450472539 -0.0163624617374) : omega : 	0.0654498469498 : d : 	(-0.310486681125 0.914664267771 -0.258819045103)
	I190 : dAve : 	(-0.0122059009283 0.0613632077737 -0.0163624617374) : omega : 	0.0654498469498 : d : 	(-0.188442780494 0.947365832386 -0.258819045103)
	I191 : dAve : 	(-0.00409197190067 0.0624314267954 -0.0163624617374) : omega : 	0.0654498469498 : d : 	(-0.0631745716435 0.963857704949 -0.258819045103)
	I192 : dAve : 	(0.00223973005487 0.034171677215 -0.0327249234749) : omega : 	0.0479126133149 : d : 	(0.0462469961895 0.70559281129 -0.707106781187)
	I193 : dAve : 	(0.00668086776241 0.0335869903436 -0.0327249234749) : omega : 	0.0479126133149 : d : 	(0.137949689641 0.693519922661 -0.707106781187)
	I194 : dAve : 	(0.0110076939702 0.0324276207555 -0.0327249234749) : omega : 	0.0479126133149 : d : 	(0.227292025657 0.669580715876 -0.707106781187)
	I195 : dAve : 	(0.0151461754823 0.0307134055855 -0.0327249234749) : omega : 	0.0479126133149 : d : 	(0.312745332096 0.634184797399 -0.707106781187)
	I196 : dAve : 	(0.0190255017326 0.0284736755306 -0.0327249234749) : omega : 	0.0479126133149 : d : 	(0.392847479194 0.58793780121 -0.707106781187)
	I197 : dAve : 	(0.0225792963734 0.025746752993 -0.0327249234749) : omega : 	0.0479126133149 : d : 	(0.466227897004 0.531631026234 -0.707106781187)
	I198 : dAve : 	(0.025746752993 0.0225792963734 -0.0327249234749) : omega : 	0.0479126133149 : d : 	(0.531631026234 0.466227897004 -0.707106781187)
	I199 : dAve : 	(0.0284736755306 0.0190255017326 -0.0327249234749) : omega : 	0.0479126133149 : d : 	(0.58793780121 0.392847479194 -0.707106781187)
	I200 : dAve : 	(0.0307134055855 0.0151461754823 -0.0327249234749) : omega : 	0.0479126133149 : d : 	(0.634184797399 0.312745332096 -0.707106781187)
	I201 : dAve : 	(0.0324276207555 0.0110076939702 -0.0327249234749) : omega : 	0.0479126133149 : d : 	(0.669580715876 0.227292025657 -0.707106781187)
	I202 : dAve : 	(0.0335869903436 0.00668086776241 -0.0327249234749) : omega : 	0.0479126133149 : d : 	(0.693519922661 0.137949689641 -0.707106781187)
	I203 : dAve : 	(0.034171677215 0.00223973005487 -0.0327249234749) : omega : 	0.0479126133149 : d : 	(0.70559281129 0.0462469961895 -0.707106781187)
	I204 : dAve : 	(0.034171677215 -0.00223973005487 -0.0327249234749) : omega : 	0.0479126133149 : d : 	(0.70559281129 -0.0462469961895 -0.707106781187)
	I205 : dAve : 	(0.0335869903436 -0.00668086776241 -0.0327249234749) : omega : 	0.0479126133149 : d : 	(0.693519922661 -0.137949689641 -0.707106781187)
	I206 : dAve : 	(0.0324276207555 -0.0110076939702 -0.0327249234749) : omega : 	0.0479126133149 : d : 	(0.669580715876 -0.227292025657 -0.707106781187)
	I207 : dAve : 	(0.0307134055855 -0.0151461754823 -0.0327249234749) : omega : 	0.0479126133149 : d : 	(0.634184797399 -0.312745332096 -0.707106781187)
	I208 : dAve : 	(0.0284736755306 -0.0190255017326 -0.0327249234749) : omega : 	0.0479126133149 : d : 	(0.58793780121 -0.392847479194 -0.707106781187)
	I209 : dAve : 	(0.025746752993 -0.0225792963734 -0.0327249234749) : omega : 	0.0479126133149 : d : 	(0.531631026234 -0.466227897004 -0.707106781187)
	I210 : dAve : 	(0.0225792963734 -0.025746752993 -0.0327249234749) : omega : 	0.0479126133149 : d : 	(0.466227897004 -0.531631026234 -0.707106781187)
	I211 : dAve : 	(0.0190255017326 -0.0284736755306 -0.0327249234749) : omega : 	0.0479126133149 : d : 	(0.392847479194 -0.58793780121 -0.707106781187)
	I212 : dAve : 	(0.0151461754823 -0.0307134055855 -0.0327249234749) : omega : 	0.0479126133149 : d : 	(0.312745332096 -0.634184797399 -0.707106781187)
	I213 : dAve : 	(0.0110076939702 -0.0324276207555 -0.0327249234749) : omega : 	0.0479126133149 : d : 	(0.227292025657 -0.669580715876 -0.707106781187)
	I214 : dAve : 	(0.00668086776241 -0.0335869903436 -0.0327249234749) : omega : 	0.0479126133149 : d : 	(0.137949689641 -0.693519922661 -0.707106781187)
	I215 : dAve : 	(0.00223973005487 -0.034171677215 -0.0327249234749) : omega : 	0.0479126133149 : d : 	(0.0462469961895 -0.70559281129 -0.707106781187)
	I216 : dAve : 	(-0.00223973005487 -0.034171677215 -0.0327249234749) : omega : 	0.0479126133149 : d : 	(-0.0462469961895 -0.70559281129 -0.707106781187)
	I217 : dAve : 	(-0.00668086776241 -0.0335869903436 -0.0327249234749) : omega : 	0.0479126133149 : d : 	(-0.137949689641 -0.693519922661 -0.707106781187)
	I218 : dAve : 	(-0.0110076939702 -0.0324276207555 -0.0327249234749) : omega : 	0.0479126133149 : d : 	(-0.227292025657 -0.669580715876 -0.707106781187)
	I219 : dAve : 	(-0.0151461754823 -0.0307134055855 -0.0327249234749) : omega : 	0.0479126133149 : d : 	(-0.312745332096 -0.634184797399 -0.707106781187)
	I220 : dAve : 	(-0.0190255017326 -0.0284736755306 -0.0327249234749) : omega : 	0.0479126133149 : d : 	(-0.392847479194 -0.58793780121 -0.707106781187)
	I221 : dAve : 	(-0.0225792963734 -0.025746752993 -0.0327249234749) : omega : 	0.0479126133149 : d : 	(-0.466227897004 -0.531631026234 -0.707106781187)
	I222 : dAve : 	(-0.025746752993 -0.0225792963734 -0.0327249234749) : omega : 	0.0479126133149 : d : 	(-0.531631026234 -0.466227897004 -0.707106781187)
	I223 : dAve : 	(-0.0284736755306 -0.0190255017326 -0.0327249234749) : omega : 	0.0479126133149 : d : 	(-0.58793780121 -0.392847479194 -0.707106781187)
	I224 : dAve : 	(-0.0307134055855 -0.0151461754823 -0.0327249234749) : omega : 	0.0479126133149 : d : 	(-0.634184797399 -0.312745332096 -0.707106781187)
	I225 : dAve : 	(-0.0324276207555 -0.0110076939702 -0.0327249234749) : omega : 	0.0479126133149 : d : 	(-0.669580715876 -0.227292025657 -0.707106781187)
	I226 : dAve : 	(-0.0335869903436 -0.00668086776241 -0.0327249234749) : omega : 	0.0479126133149 : d : 	(-0.693519922661 -0.137949689641 -0.707106781187)
	I227 : dAve : 	(-0.034171677215 -0.00223973005487 -0.0327249234749) : omega : 	0.0479126133149 : d : 	(-0.70559281129 -0.0462469961895 -0.707106781187)
	I228 : dAve : 	(-0.034171677215 0.00223973005487 -0.0327249234749) : omega : 	0.0479126133149 : d : 	(-0.70559281129 0.0462469961895 -0.707106781187)
	I229 : dAve : 	(-0.0335869903436 0.00668086776241 -0.0327249234749) : omega : 	0.0479126133149 : d : 	(-0.693519922661 0.137949689641 -0.707106781187)
	I230 : dAve : 	(-0.0324276207555 0.0110076939702 -0.0327249234749) : omega : 	0.0479126133149 : d : 	(-0.669580715876 0.227292025657 -0.707106781187)
	I231 : dAve : 	(-0.0307134055855 0.0151461754823 -0.0327249234749) : omega : 	0.0479126133149 : d : 	(-0.634184797399 0.312745332096 -0.707106781187)
	I232 : dAve : 	(-0.0284736755306 0.0190255017326 -0.0327249234749) : omega : 	0.0479126133149 : d : 	(-0.58793780121 0.392847479194 -0.707106781187)
	I233 : dAve : 	(-0.025746752993 0.0225792963734 -0.0327249234749) : omega : 	0.0479126133149 : d : 	(-0.531631026234 0.466227897004 -0.707106781187)
	I234 : dAve : 	(-0.0225792963734 0.025746752993 -0.0327249234749) : omega : 	0.0479126133149 : d : 	(-0.466227897004 0.531631026234 -0.707106781187)
	I235 : dAve : 	(-0.0190255017326 0.0284736755306 -0.0327249234749) : omega : 	0.0479126133149 : d : 	(-0.392847479194 0.58793780121 -0.707106781187)
	I236 : dAve : 	(-0.0151461754823 0.0307134055855 -0.0327249234749) : omega : 	0.0479126133149 : d : 	(-0.312745332096 0.634184797399 -0.707106781187)
	I237 : dAve : 	(-0.0110076939702 0.0324276207555 -0.0327249234749) : omega : 	0.0479126133149 : d : 	(-0.227292025657 0.669580715876 -0.707106781187)
	I238 : dAve : 	(-0.00668086776241 0.0335869903436 -0.0327249234749) : omega : 	0.0479126133149 : d : 	(-0.137949689641 0.693519922661 -0.707106781187)
	I239 : dAve : 	(-0.00223973005487 0.034171677215 -0.0327249234749) : omega : 	0.0479126133149 : d : 	(-0.0462469961895 0.70559281129 -0.707106781187)
	I240 : dAve : 	(0.000387488209079 0.00591192763451 -0.0163624617374) : omega : 	0.0175372336349 : d : 	(0.0169275754541 0.25826489366 -0.965925826289)
	I241 : dAve : 	(0.00115583459655 0.00581077291359 -0.0163624617374) : omega : 	0.0175372336349 : d : 	(0.050493090853 0.253845909725 -0.965925826289)
	I242 : dAve : 	(0.00190440433361 0.00561019425706 -0.0163624617374) : omega : 	0.0175372336349 : d : 	(0.083194655468 0.245083551895 -0.965925826289)
	I243 : dAve : 	(0.00262038918453 0.00531362362136 -0.0163624617374) : omega : 	0.0175372336349 : d : 	(0.114472736462 0.232127746542 -0.965925826289)
	I244 : dAve : 	(0.00329153844998 0.00492613541228 -0.0163624617374) : omega : 	0.0175372336349 : d : 	(0.143792157198 0.215200171088 -0.965925826289)
	I245 : dAve : 	(0.00390636857998 0.00445435966052 -0.0163624617374) : omega : 	0.0175372336349 : d : 	(0.170651254257 0.194590461042 -0.965925826289)
	I246 : dAve : 	(0.00445435966052 0.00390636857998 -0.0163624617374) : omega : 	0.0175372336349 : d : 	(0.194590461042 0.170651254257 -0.965925826289)
	I247 : dAve : 	(0.00492613541228 0.00329153844998 -0.0163624617374) : omega : 	0.0175372336349 : d : 	(0.215200171088 0.143792157198 -0.965925826289)
	I248 : dAve : 	(0.00531362362136 0.00262038918453 -0.0163624617374) : omega : 	0.0175372336349 : d : 	(0.232127746542 0.114472736462 -0.965925826289)
	I249 : dAve : 	(0.00561019425706 0.00190440433361 -0.0163624617374) : omega : 	0.0175372336349 : d : 	(0.245083551895 0.083194655468 -0.965925826289)
	I250 : dAve : 	(0.00581077291359 0.00115583459655 -0.0163624617374) : omega : 	0.0175372336349 : d : 	(0.253845909725 0.050493090853 -0.965925826289)
	I251 : dAve : 	(0.00591192763451 0.000387488209079 -0.0163624617374) : omega : 	0.0175372336349 : d : 	(0.25826489366 0.0169275754541 -0.965925826289)
	I252 : dAve : 	(0.00591192763451 -0.000387488209079 -0.0163624617374) : omega : 	0.0175372336349 : d : 	(0.25826489366 -0.0169275754541 -0.965925826289)
	I253 : dAve : 	(0.00581077291359 -0.00115583459655 -0.0163624617374) : omega : 	0.0175372336349 : d : 	(0.253845909725 -0.050493090853 -0.965925826289)
	I254 : dAve : 	(0.00561019425706 -0.00190440433361 -0.0163624617374) : omega : 	0.0175372336349 : d : 	(0.245083551895 -0.083194655468 -0.965925826289)
	I255 : dAve : 	(0.00531362362136 -0.00262038918453 -0.0163624617374) : omega : 	0.0175372336349 : d : 	(0.232127746542 -0.114472736462 -0.965925826289)
	I256 : dAve : 	(0.00492613541228 -0.00329153844998 -0.0163624617374) : omega : 	0.0175372336349 : d : 	(0.215200171088 -0.143792157198 -0.965925826289)
	I257 : dAve : 	(0.00445435966052 -0.00390636857998 -0.0163624617374) : omega : 	0.0175372336349 : d : 	(0.194590461042 -0.170651254257 -0.965925826289)
	I258 : dAve : 	(0.00390636857998 -0.00445435966052 -0.0163624617374) : omega : 	0.0175372336349 : d : 	(0.170651254257 -0.194590461042 -0.965925826289)
	I259 : dAve : 	(0.00329153844998 -0.00492613541228 -0.0163624617374) : omega : 	0.0175372336349 : d : 	(0.143792157198 -0.215200171088 -0.965925826289)
	I260 : dAve : 	(0.00262038918453 -0.00531362362136 -0.0163624617374) : omega : 	0.0175372336349 : d : 	(0.114472736462 -0.232127746542 -0.965925826289)
	I261 : dAve : 	(0.00190440433361 -0.00561019425706 -0.0163624617374) : omega : 	0.0175372336349 : d : 	(0.083194655468 -0.245083551895 -0.965925826289)
	I262 : dAve : 	(0.00115583459655 -0.00581077291359 -0.0163624617374) : omega : 	0.0175372336349 : d : 	(0.050493090853 -0.253845909725 -0.965925826289)
	I263 : dAve : 	(0.000387488209079 -0.00591192763451 -0.0163624617374) : omega : 	0.0175372336349 : d : 	(0.0169275754541 -0.25826489366 -0.965925826289)
	I264 : dAve : 	(-0.000387488209079 -0.00591192763451 -0.0163624617374) : omega : 	0.0175372336349 : d : 	(-0.0169275754541 -0.25826489366 -0.965925826289)
	I265 : dAve : 	(-0.00115583459655 -0.00581077291359 -0.0163624617374) : omega : 	0.0175372336349 : d : 	(-0.050493090853 -0.253845909725 -0.965925826289)
	I266 : dAve : 	(-0.00190440433361 -0.00561019425706 -0.0163624617374) : omega : 	0.0175372336349 : d : 	(-0.083194655468 -0.245083551895 -0.965925826289)
	I267 : dAve : 	(-0.00262038918453 -0.00531362362136 -0.0163624617374) : omega : 	0.0175372336349 : d : 	(-0.114472736462 -0.232127746542 -0.965925826289)
	I268 : dAve : 	(-0.00329153844998 -0.00492613541228 -0.0163624617374) : omega : 	0.0175372336349 : d : 	(-0.143792157198 -0.215200171088 -0.965925826289)
	I269 : dAve : 	(-0.00390636857998 -0.00445435966052 -0.0163624617374) : omega : 	0.0175372336349 : d : 	(-0.170651254257 -0.194590461042 -0.965925826289)
	I270 : dAve : 	(-0.00445435966052 -0.00390636857998 -0.0163624617374) : omega : 	0.0175372336349 : d : 	(-0.194590461042 -0.170651254257 -0.965925826289)
	I271 : dAve : 	(-0.00492613541228 -0.00329153844998 -0.0163624617374) : omega : 	0.0175372336349 : d : 	(-0.215200171088 -0.143792157198 -0.965925826289)
	I272 : dAve : 	(-0.00531362362136 -0.00262038918453 -0.0163624617374) : omega : 	0.0175372336349 : d : 	(-0.232127746542 -0.114472736462 -0.965925826289)
	I273 : dAve : 	(-0.00561019425706 -0.00190440433361 -0.0163624617374) : omega : 	0.0175372336349 : d : 	(-0.245083551895 -0.083194655468 -0.965925826289)
	I274 : dAve : 	(-0.00581077291359 -0.00115583459655 -0.0163624617374) : omega : 	0.0175372336349 : d : 	(-0.253845909725 -0.050493090853 -0.965925826289)
	I275 : dAve : 	(-0.00591192763451 -0.000387488209079 -0.0163624617374) : omega : 	0.0175372336349 : d : 	(-0.25826489366 -0.0169275754541 -0.965925826289)
	I276 : dAve : 	(-0.00591192763451 0.000387488209079 -0.0163624617374) : omega : 	0.0175372336349 : d : 	(-0.25826489366 0.0169275754541 -0.965925826289)
	I277 : dAve : 	(-0.00581077291359 0.00115583459655 -0.0163624617374) : omega : 	0.0175372336349 : d : 	(-0.253845909725 0.050493090853 -0.965925826289)
	I278 : dAve : 	(-0.00561019425706 0.00190440433361 -0.0163624617374) : omega : 	0.0175372336349 : d : 	(-0.245083551895 0.083194655468 -0.965925826289)
	I279 : dAve : 	(-0.00531362362136 0.00262038918453 -0.0163624617374) : omega : 	0.0175372336349 : d : 	(-0.232127746542 0.114472736462 -0.965925826289)
	I280 : dAve : 	(-0.00492613541228 0.00329153844998 -0.0163624617374) : omega : 	0.0175372336349 : d : 	(-0.215200171088 0.143792157198 -0.965925826289)
	I281 : dAve : 	(-0.00445435966052 0.00390636857998 -0.0163624617374) : omega : 	0.0175372336349 : d : 	(-0.194590461042 0.170651254257 -0.965925826289)
	I282 : dAve : 	(-0.00390636857998 0.00445435966052 -0.0163624617374) : omega : 	0.0175372336349 : d : 	(-0.170651254257 0.194590461042 -0.965925826289)
	I283 : dAve : 	(-0.00329153844998 0.00492613541228 -0.0163624617374) : omega : 	0.0175372336349 : d : 	(-0.143792157198 0.215200171088 -0.965925826289)
	I284 : dAve : 	(-0.00262038918453 0.00531362362136 -0.0163624617374) : omega : 	0.0175372336349 : d : 	(-0.114472736462 0.232127746542 -0.965925826289)
	I285 : dAve : 	(-0.00190440433361 0.00561019425706 -0.0163624617374) : omega : 	0.0175372336349 : d : 	(-0.083194655468 0.245083551895 -0.965925826289)
	I286 : dAve : 	(-0.00115583459655 0.00581077291359 -0.0163624617374) : omega : 	0.0175372336349 : d : 	(-0.050493090853 0.253845909725 -0.965925826289)
	I287 : dAve : 	(-0.000387488209079 0.00591192763451 -0.0163624617374) : omega : 	0.0175372336349 : d : 	(-0.0169275754541 0.25826489366 -0.965925826289)
Total omega : 12.5663706144

Courant Number mean: 0 max: 0

Starting time loop

Sampled set:
    data -> csv

Sampled set:
    data -> csv

Sampled surface:
    yNormal -> ensight
        sampledCuttingPlane: yNormal : plane:(0 1 0) (0 0 0) offsets:(0)

Sampled surface:
    zNormal -> ensight
        sampledCuttingPlane: zNormal : plane:(0 0 1) (0 0 0) offsets:(0)

Sampled surface:
    patchAll -> ensight
        sampledPatch: patchAll : patches:(".*WW.*")

deltaT = 1
Time = 1

PIMPLE: iteration 1
Radiation solver iter: 0
DILUPBiCGStab:  Solving for ILambda_0_0, Initial residual = 1, Final residual = 3.40494870648e-74, No Iterations 3
DILUPBiCGStab:  Solving for ILambda_1_0, Initial residual = 1, Final residual = 3.52572478822e-61, No Iterations 3
DILUPBiCGStab:  Solving for ILambda_2_0, Initial residual = 1, Final residual = 5.90842515074e-67, No Iterations 3
DILUPBiCGStab:  Solving for ILambda_3_0, Initial residual = 1, Final residual = 9.7499464453e-61, No Iterations 3
DILUPBiCGStab:  Solving for ILambda_4_0, Initial residual = 1, Final residual = 2.71821113262e-61, No Iterations 3
DILUPBiCGStab:  Solving for ILambda_5_0, Initial residual = 1, Final residual = 8.56646335023e-73, No Iterations 3
DILUPBiCGStab:  Solving for ILambda_6_0, Initial residual = 1, Final residual = 3.30170128891e-75, No Iterations 3
DILUPBiCGStab:  Solving for ILambda_7_0, Initial residual = 1, Final residual = 6.45238639267e-74, No Iterations 3
DILUPBiCGStab:  Solving for ILambda_8_0, Initial residual = 1, Final residual = 6.25892357745e-61, No Iterations 3
DILUPBiCGStab:  Solving for ILambda_9_0, Initial residual = 1, Final residual = 7.23927241156e-63, No Iterations 3
DILUPBiCGStab:  Solving for ILambda_10_0, Initial residual = 1, Final residual = 8.05626597495e-61, No Iterations 3
DILUPBiCGStab:  Solving for ILambda_11_0, Initial residual = 1, Final residual = 2.42630761856e-75, No Iterations 3
DILUPBiCGStab:  Solving for ILambda_12_0, Initial residual = 1, Final residual = 5.52818782382e-61, No Iterations 48
DILUPBiCGStab:  Solving for ILambda_13_0, Initial residual = 1, Final residual = 9.63755784295e-61, No Iterations 75
DILUPBiCGStab:  Solving for ILambda_14_0, Initial residual = 1, Final residual = 2.5422652471e-61, No Iterations 91
DILUPBiCGStab:  Solving for ILambda_15_0, Initial residual = 1, Final residual = 5.58123270642e-61, No Iterations 100
DILUPBiCGStab:  Solving for ILambda_16_0, Initial residual = 1, Final residual = 6.15995996036e-61, No Iterations 108
DILUPBiCGStab:  Solving for ILambda_17_0, Initial residual = 1, Final residual = 2.77482109584e-61, No Iterations 108
DILUPBiCGStab:  Solving for ILambda_18_0, Initial residual = 1, Final residual = 2.11304681086e-61, No Iterations 109
DILUPBiCGStab:  Solving for ILambda_19_0, Initial residual = 1, Final residual = 8.00971394637e-61, No Iterations 107
DILUPBiCGStab:  Solving for ILambda_20_0, Initial residual = 1, Final residual = 4.37763158746e-61, No Iterations 105
DILUPBiCGStab:  Solving for ILambda_21_0, Initial residual = 1, Final residual = 4.84367673492e-61, No Iterations 92
DILUPBiCGStab:  Solving for ILambda_22_0, Initial residual = 1, Final residual = 4.35942664522e-61, No Iterations 75
DILUPBiCGStab:  Solving for ILambda_23_0, Initial residual = 1, Final residual = 5.74010053018e-61, No Iterations 48
DILUPBiCGStab:  Solving for ILambda_24_0, Initial residual = 1, Final residual = 3.05458886571e-61, No Iterations 29
DILUPBiCGStab:  Solving for ILambda_25_0, Initial residual = 1, Final residual = 8.2800032851e-61, No Iterations 30
DILUPBiCGStab:  Solving for ILambda_26_0, Initial residual = 1, Final residual = 2.51844366048e-61, No Iterations 30
DILUPBiCGStab:  Solving for ILambda_27_0, Initial residual = 1, Final residual = 1.3324972736e-61, No Iterations 31
DILUPBiCGStab:  Solving for ILambda_28_0, Initial residual = 1, Final residual = 4.6166274178e-61, No Iterations 31
DILUPBiCGStab:  Solving for ILambda_29_0, Initial residual = 1, Final residual = 2.20723536183e-61, No Iterations 31
DILUPBiCGStab:  Solving for ILambda_30_0, Initial residual = 1, Final residual = 3.21803242647e-62, No Iterations 31
DILUPBiCGStab:  Solving for ILambda_31_0, Initial residual = 1, Final residual = 9.03929149024e-62, No Iterations 31
DILUPBiCGStab:  Solving for ILambda_32_0, Initial residual = 1, Final residual = 3.59228242003e-61, No Iterations 31
DILUPBiCGStab:  Solving for ILambda_33_0, Initial residual = 1, Final residual = 7.00903638247e-62, No Iterations 30
DILUPBiCGStab:  Solving for ILambda_34_0, Initial residual = 1, Final residual = 6.03362681668e-61, No Iterations 30
DILUPBiCGStab:  Solving for ILambda_35_0, Initial residual = 1, Final residual = 2.59215523378e-62, No Iterations 29
DILUPBiCGStab:  Solving for ILambda_36_0, Initial residual = 1, Final residual = 2.51292501936e-61, No Iterations 48
DILUPBiCGStab:  Solving for ILambda_37_0, Initial residual = 1, Final residual = 5.01978558335e-61, No Iterations 75
DILUPBiCGStab:  Solving for ILambda_38_0, Initial residual = 1, Final residual = 3.77173967298e-61, No Iterations 91
DILUPBiCGStab:  Solving for ILambda_39_0, Initial residual = 1, Final residual = 3.90096396242e-61, No Iterations 105
DILUPBiCGStab:  Solving for ILambda_40_0, Initial residual = 1, Final residual = 3.64151202402e-61, No Iterations 108
DILUPBiCGStab:  Solving for ILambda_41_0, Initial residual = 1, Final residual = 1.44958157674e-61, No Iterations 112
DILUPBiCGStab:  Solving for ILambda_42_0, Initial residual = 1, Final residual = 3.0011574246e-61, No Iterations 109
DILUPBiCGStab:  Solving for ILambda_43_0, Initial residual = 1, Final residual = 4.12538724395e-62, No Iterations 106
DILUPBiCGStab:  Solving for ILambda_44_0, Initial residual = 1, Final residual = 2.83005073412e-61, No Iterations 101
DILUPBiCGStab:  Solving for ILambda_45_0, Initial residual = 1, Final residual = 5.9233345284e-61, No Iterations 91
DILUPBiCGStab:  Solving for ILambda_46_0, Initial residual = 1, Final residual = 2.97251317313e-61, No Iterations 74
DILUPBiCGStab:  Solving for ILambda_47_0, Initial residual = 1, Final residual = 4.70587670291e-61, No Iterations 48
DILUPBiCGStab:  Solving for ILambda_48_0, Initial residual = 1, Final residual = 5.9263672631e-71, No Iterations 3
DILUPBiCGStab:  Solving for ILambda_49_0, Initial residual = 1, Final residual = 2.38519377455e-71, No Iterations 3
DILUPBiCGStab:  Solving for ILambda_50_0, Initial residual = 1, Final residual = 1.60719179344e-69, No Iterations 3
DILUPBiCGStab:  Solving for ILambda_51_0, Initial residual = 1, Final residual = 1.31295577205e-66, No Iterations 3
DILUPBiCGStab:  Solving for ILambda_52_0, Initial residual = 1, Final residual = 1.09349997173e-68, No Iterations 3
DILUPBiCGStab:  Solving for ILambda_53_0, Initial residual = 1, Final residual = 3.78855189456e-70, No Iterations 3
DILUPBiCGStab:  Solving for ILambda_54_0, Initial residual = 1, Final residual = 1.83857161876e-70, No Iterations 3
DILUPBiCGStab:  Solving for ILambda_55_0, Initial residual = 1, Final residual = 1.58053378955e-69, No Iterations 3
DILUPBiCGStab:  Solving for ILambda_56_0, Initial residual = 1, Final residual = 4.61002963109e-70, No Iterations 3
DILUPBiCGStab:  Solving for ILambda_57_0, Initial residual = 1, Final residual = 4.50945489743e-71, No Iterations 3
DILUPBiCGStab:  Solving for ILambda_58_0, Initial residual = 1, Final residual = 1.20051229689e-71, No Iterations 3
DILUPBiCGStab:  Solving for ILambda_59_0, Initial residual = 1, Final residual = 6.35503316083e-72, No Iterations 3
DILUPBiCGStab:  Solving for ILambda_60_0, Initial residual = 1, Final residual = 6.21198361726e-61, No Iterations 48
DILUPBiCGStab:  Solving for ILambda_61_0, Initial residual = 1, Final residual = 8.75696743548e-61, No Iterations 75
DILUPBiCGStab:  Solving for ILambda_62_0, Initial residual = 1, Final residual = 2.37424356795e-61, No Iterations 94
DILUPBiCGStab:  Solving for ILambda_63_0, Initial residual = 1, Final residual = 9.35921695655e-61, No Iterations 104
DILUPBiCGStab:  Solving for ILambda_64_0, Initial residual = 1, Final residual = 9.56453529011e-61, No Iterations 109
DILUPBiCGStab:  Solving for ILambda_65_0, Initial residual = 1, Final residual = 2.677125454e-61, No Iterations 112
DILUPBiCGStab:  Solving for ILambda_66_0, Initial residual = 1, Final residual = 3.45440190285e-61, No Iterations 113
DILUPBiCGStab:  Solving for ILambda_67_0, Initial residual = 1, Final residual = 3.25978562593e-61, No Iterations 109
DILUPBiCGStab:  Solving for ILambda_68_0, Initial residual = 1, Final residual = 5.67286290666e-61, No Iterations 103
DILUPBiCGStab:  Solving for ILambda_69_0, Initial residual = 1, Final residual = 3.0941235143e-61, No Iterations 92
DILUPBiCGStab:  Solving for ILambda_70_0, Initial residual = 1, Final residual = 1.75295142828e-61, No Iterations 75
DILUPBiCGStab:  Solving for ILambda_71_0, Initial residual = 1, Final residual = 1.03333177695e-61, No Iterations 47
DILUPBiCGStab:  Solving for ILambda_72_0, Initial residual = 1, Final residual = 2.05072867821e-61, No Iterations 34
DILUPBiCGStab:  Solving for ILambda_73_0, Initial residual = 1, Final residual = 2.20308277769e-61, No Iterations 36
DILUPBiCGStab:  Solving for ILambda_74_0, Initial residual = 1, Final residual = 2.20927030134e-61, No Iterations 36
DILUPBiCGStab:  Solving for ILambda_75_0, Initial residual = 1, Final residual = 1.77705095004e-61, No Iterations 36
DILUPBiCGStab:  Solving for ILambda_76_0, Initial residual = 1, Final residual = 5.07124936923e-62, No Iterations 37
DILUPBiCGStab:  Solving for ILambda_77_0, Initial residual = 1, Final residual = 3.58890737919e-62, No Iterations 38
DILUPBiCGStab:  Solving for ILambda_78_0, Initial residual = 1, Final residual = 1.16970416337e-61, No Iterations 38
DILUPBiCGStab:  Solving for ILambda_79_0, Initial residual = 1, Final residual = 3.52656244658e-61, No Iterations 38
DILUPBiCGStab:  Solving for ILambda_80_0, Initial residual = 1, Final residual = 4.50700947182e-61, No Iterations 37
DILUPBiCGStab:  Solving for ILambda_81_0, Initial residual = 1, Final residual = 7.99247211189e-63, No Iterations 37
DILUPBiCGStab:  Solving for ILambda_82_0, Initial residual = 1, Final residual = 2.20260452909e-61, No Iterations 36
DILUPBiCGStab:  Solving for ILambda_83_0, Initial residual = 1, Final residual = 1.88677644696e-61, No Iterations 34
DILUPBiCGStab:  Solving for ILambda_84_0, Initial residual = 1, Final residual = 1.51822423737e-61, No Iterations 47
DILUPBiCGStab:  Solving for ILambda_85_0, Initial residual = 1, Final residual = 4.62986348395e-61, No Iterations 74
DILUPBiCGStab:  Solving for ILambda_86_0, Initial residual = 1, Final residual = 7.20431237483e-61, No Iterations 92
DILUPBiCGStab:  Solving for ILambda_87_0, Initial residual = 1, Final residual = 3.92426492894e-61, No Iterations 102
DILUPBiCGStab:  Solving for ILambda_88_0, Initial residual = 1, Final residual = 1.94817907893e-61, No Iterations 110
DILUPBiCGStab:  Solving for ILambda_89_0, Initial residual = 1, Final residual = 9.63614671729e-61, No Iterations 114
DILUPBiCGStab:  Solving for ILambda_90_0, Initial residual = 1, Final residual = 9.30536249335e-61, No Iterations 112
DILUPBiCGStab:  Solving for ILambda_91_0, Initial residual = 1, Final residual = 7.28494679094e-61, No Iterations 109
DILUPBiCGStab:  Solving for ILambda_92_0, Initial residual = 1, Final residual = 1.89996547121e-61, No Iterations 106
DILUPBiCGStab:  Solving for ILambda_93_0, Initial residual = 1, Final residual = 6.79021718391e-61, No Iterations 91
DILUPBiCGStab:  Solving for ILambda_94_0, Initial residual = 1, Final residual = 2.87150381341e-61, No Iterations 74
DILUPBiCGStab:  Solving for ILambda_95_0, Initial residual = 1, Final residual = 3.69279944854e-61, No Iterations 48
DILUPBiCGStab:  Solving for ILambda_96_0, Initial residual = 1, Final residual = 8.25679581382e-71, No Iterations 3
DILUPBiCGStab:  Solving for ILambda_97_0, Initial residual = 1, Final residual = 2.11488311431e-72, No Iterations 3
DILUPBiCGStab:  Solving for ILambda_98_0, Initial residual = 1, Final residual = 2.83284828305e-75, No Iterations 3
DILUPBiCGStab:  Solving for ILambda_99_0, Initial residual = 1, Final residual = 3.91425735481e-69, No Iterations 3
DILUPBiCGStab:  Solving for ILambda_100_0, Initial residual = 1, Final residual = 2.47479237107e-73, No Iterations 3
DILUPBiCGStab:  Solving for ILambda_101_0, Initial residual = 1, Final residual = 2.86689247568e-71, No Iterations 3
DILUPBiCGStab:  Solving for ILambda_102_0, Initial residual = 1, Final residual = 3.73242923733e-70, No Iterations 3
DILUPBiCGStab:  Solving for ILambda_103_0, Initial residual = 1, Final residual = 6.18152743435e-70, No Iterations 3
DILUPBiCGStab:  Solving for ILambda_104_0, Initial residual = 1, Final residual = 6.89712644979e-76, No Iterations 3
DILUPBiCGStab:  Solving for ILambda_105_0, Initial residual = 1, Final residual = 1.3898475553e-72, No Iterations 3
DILUPBiCGStab:  Solving for ILambda_106_0, Initial residual = 1, Final residual = 1.48082164677e-72, No Iterations 3
DILUPBiCGStab:  Solving for ILambda_107_0, Initial residual = 1, Final residual = 6.58556494539e-73, No Iterations 3
DILUPBiCGStab:  Solving for ILambda_108_0, Initial residual = 1, Final residual = 1.36779833083e-61, No Iterations 50
DILUPBiCGStab:  Solving for ILambda_109_0, Initial residual = 1, Final residual = 6.51703384061e-61, No Iterations 74
DILUPBiCGStab:  Solving for ILambda_110_0, Initial residual = 1, Final residual = 7.73453837523e-62, No Iterations 90
DILUPBiCGStab:  Solving for ILambda_111_0, Initial residual = 1, Final residual = 3.6133375146e-62, No Iterations 104
DILUPBiCGStab:  Solving for ILambda_112_0, Initial residual = 1, Final residual = 4.93489698534e-61, No Iterations 107
DILUPBiCGStab:  Solving for ILambda_113_0, Initial residual = 1, Final residual = 2.47516451674e-61, No Iterations 114
DILUPBiCGStab:  Solving for ILambda_114_0, Initial residual = 1, Final residual = 9.51261980514e-61, No Iterations 113
DILUPBiCGStab:  Solving for ILambda_115_0, Initial residual = 1, Final residual = 4.11877314495e-61, No Iterations 110
DILUPBiCGStab:  Solving for ILambda_116_0, Initial residual = 1, Final residual = 7.34328259329e-62, No Iterations 105
DILUPBiCGStab:  Solving for ILambda_117_0, Initial residual = 1, Final residual = 2.11393403261e-61, No Iterations 90
DILUPBiCGStab:  Solving for ILambda_118_0, Initial residual = 1, Final residual = 5.57165412026e-61, No Iterations 74
DILUPBiCGStab:  Solving for ILambda_119_0, Initial residual = 1, Final residual = 2.73579439389e-61, No Iterations 48
DILUPBiCGStab:  Solving for ILambda_120_0, Initial residual = 1, Final residual = 2.28999936673e-61, No Iterations 40
DILUPBiCGStab:  Solving for ILambda_121_0, Initial residual = 1, Final residual = 9.47509044719e-61, No Iterations 43
DILUPBiCGStab:  Solving for ILambda_122_0, Initial residual = 1, Final residual = 3.71853328225e-61, No Iterations 42
DILUPBiCGStab:  Solving for ILambda_123_0, Initial residual = 1, Final residual = 2.67010001045e-62, No Iterations 43
DILUPBiCGStab:  Solving for ILambda_124_0, Initial residual = 1, Final residual = 5.70439184712e-61, No Iterations 47
DILUPBiCGStab:  Solving for ILambda_125_0, Initial residual = 1, Final residual = 5.62381688671e-61, No Iterations 45
DILUPBiCGStab:  Solving for ILambda_126_0, Initial residual = 1, Final residual = 3.32975354745e-61, No Iterations 45
DILUPBiCGStab:  Solving for ILambda_127_0, Initial residual = 1, Final residual = 8.88237318752e-61, No Iterations 44
DILUPBiCGStab:  Solving for ILambda_128_0, Initial residual = 1, Final residual = 3.70636067263e-61, No Iterations 48
DILUPBiCGStab:  Solving for ILambda_129_0, Initial residual = 1, Final residual = 5.99760287578e-61, No Iterations 45
DILUPBiCGStab:  Solving for ILambda_130_0, Initial residual = 1, Final residual = 1.378394747e-61, No Iterations 43
DILUPBiCGStab:  Solving for ILambda_131_0, Initial residual = 1, Final residual = 5.70570622356e-62, No Iterations 40
DILUPBiCGStab:  Solving for ILambda_132_0, Initial residual = 1, Final residual = 1.19802694974e-61, No Iterations 48
DILUPBiCGStab:  Solving for ILambda_133_0, Initial residual = 1, Final residual = 5.14036335243e-61, No Iterations 73
DILUPBiCGStab:  Solving for ILambda_134_0, Initial residual = 1, Final residual = 3.98244686075e-61, No Iterations 93
DILUPBiCGStab:  Solving for ILambda_135_0, Initial residual = 1, Final residual = 7.61028790468e-61, No Iterations 104
DILUPBiCGStab:  Solving for ILambda_136_0, Initial residual = 1, Final residual = 5.27318054266e-61, No Iterations 110
DILUPBiCGStab:  Solving for ILambda_137_0, Initial residual = 1, Final residual = 3.05800565652e-61, No Iterations 114
DILUPBiCGStab:  Solving for ILambda_138_0, Initial residual = 1, Final residual = 1.61125853118e-61, No Iterations 116
DILUPBiCGStab:  Solving for ILambda_139_0, Initial residual = 1, Final residual = 3.52215420222e-61, No Iterations 107
DILUPBiCGStab:  Solving for ILambda_140_0, Initial residual = 1, Final residual = 1.66410486209e-61, No Iterations 103
DILUPBiCGStab:  Solving for ILambda_141_0, Initial residual = 1, Final residual = 2.91486277444e-61, No Iterations 90
DILUPBiCGStab:  Solving for ILambda_142_0, Initial residual = 1, Final residual = 5.13948386849e-61, No Iterations 74
DILUPBiCGStab:  Solving for ILambda_143_0, Initial residual = 1, Final residual = 1.18324484261e-61, No Iterations 49
DILUPBiCGStab:  Solving for ILambda_144_0, Initial residual = 1, Final residual = 6.58663558923e-61, No Iterations 41
DILUPBiCGStab:  Solving for ILambda_145_0, Initial residual = 1, Final residual = 1.08786499418e-61, No Iterations 44
DILUPBiCGStab:  Solving for ILambda_146_0, Initial residual = 1, Final residual = 5.81169635845e-61, No Iterations 44
DILUPBiCGStab:  Solving for ILambda_147_0, Initial residual = 1, Final residual = 1.1622442268e-61, No Iterations 43
DILUPBiCGStab:  Solving for ILambda_148_0, Initial residual = 1, Final residual = 1.05072466418e-61, No Iterations 43
DILUPBiCGStab:  Solving for ILambda_149_0, Initial residual = 1, Final residual = 7.17436221893e-61, No Iterations 41
DILUPBiCGStab:  Solving for ILambda_150_0, Initial residual = 1, Final residual = 9.69894296899e-63, No Iterations 43
DILUPBiCGStab:  Solving for ILambda_151_0, Initial residual = 1, Final residual = 1.67390627847e-61, No Iterations 42
DILUPBiCGStab:  Solving for ILambda_152_0, Initial residual = 1, Final residual = 6.35161175294e-62, No Iterations 43
DILUPBiCGStab:  Solving for ILambda_153_0, Initial residual = 1, Final residual = 5.10456449698e-63, No Iterations 44
DILUPBiCGStab:  Solving for ILambda_154_0, Initial residual = 1, Final residual = 2.76659380479e-61, No Iterations 45
DILUPBiCGStab:  Solving for ILambda_155_0, Initial residual = 1, Final residual = 4.40715719641e-61, No Iterations 44
DILUPBiCGStab:  Solving for ILambda_156_0, Initial residual = 1, Final residual = 1.29623000614e-61, No Iterations 48
DILUPBiCGStab:  Solving for ILambda_157_0, Initial residual = 1, Final residual = 9.56456312627e-61, No Iterations 72
DILUPBiCGStab:  Solving for ILambda_158_0, Initial residual = 1, Final residual = 3.82129901277e-61, No Iterations 89
DILUPBiCGStab:  Solving for ILambda_159_0, Initial residual = 1, Final residual = 5.28249709097e-61, No Iterations 104
DILUPBiCGStab:  Solving for ILambda_160_0, Initial residual = 1, Final residual = 4.17426405953e-61, No Iterations 108
DILUPBiCGStab:  Solving for ILambda_161_0, Initial residual = 1, Final residual = 2.12367506269e-61, No Iterations 114
DILUPBiCGStab:  Solving for ILambda_162_0, Initial residual = 1, Final residual = 2.98626972176e-61, No Iterations 113
DILUPBiCGStab:  Solving for ILambda_163_0, Initial residual = 1, Final residual = 4.00075310178e-61, No Iterations 110
DILUPBiCGStab:  Solving for ILambda_164_0, Initial residual = 1, Final residual = 5.44491248535e-61, No Iterations 103
DILUPBiCGStab:  Solving for ILambda_165_0, Initial residual = 1, Final residual = 7.5097948938e-61, No Iterations 88
DILUPBiCGStab:  Solving for ILambda_166_0, Initial residual = 1, Final residual = 4.27871312719e-61, No Iterations 74
DILUPBiCGStab:  Solving for ILambda_167_0, Initial residual = 1, Final residual = 4.06822716173e-61, No Iterations 50
DILUPBiCGStab:  Solving for ILambda_168_0, Initial residual = 1, Final residual = 1.38873916422e-72, No Iterations 3
DILUPBiCGStab:  Solving for ILambda_169_0, Initial residual = 1, Final residual = 6.25524622749e-61, No Iterations 3
DILUPBiCGStab:  Solving for ILambda_170_0, Initial residual = 1, Final residual = 2.73603802713e-73, No Iterations 3
DILUPBiCGStab:  Solving for ILambda_171_0, Initial residual = 1, Final residual = 1.75732186875e-70, No Iterations 3
DILUPBiCGStab:  Solving for ILambda_172_0, Initial residual = 1, Final residual = 2.15538090673e-74, No Iterations 3
DILUPBiCGStab:  Solving for ILambda_173_0, Initial residual = 1, Final residual = 1.26712203022e-70, No Iterations 3
DILUPBiCGStab:  Solving for ILambda_174_0, Initial residual = 1, Final residual = 6.10611841621e-72, No Iterations 3
DILUPBiCGStab:  Solving for ILambda_175_0, Initial residual = 1, Final residual = 7.90659887833e-75, No Iterations 3
DILUPBiCGStab:  Solving for ILambda_176_0, Initial residual = 1, Final residual = 1.78635181814e-71, No Iterations 3
DILUPBiCGStab:  Solving for ILambda_177_0, Initial residual = 1, Final residual = 2.57099753635e-74, No Iterations 3
DILUPBiCGStab:  Solving for ILambda_178_0, Initial residual = 1, Final residual = 1.40078780595e-74, No Iterations 3
DILUPBiCGStab:  Solving for ILambda_179_0, Initial residual = 1, Final residual = 1.61943587412e-75, No Iterations 3
DILUPBiCGStab:  Solving for ILambda_180_0, Initial residual = 1, Final residual = 8.59737022694e-61, No Iterations 49
DILUPBiCGStab:  Solving for ILambda_181_0, Initial residual = 1, Final residual = 8.07421228195e-61, No Iterations 73
DILUPBiCGStab:  Solving for ILambda_182_0, Initial residual = 1, Final residual = 8.17774810958e-61, No Iterations 89
DILUPBiCGStab:  Solving for ILambda_183_0, Initial residual = 1, Final residual = 1.81828668435e-61, No Iterations 103
DILUPBiCGStab:  Solving for ILambda_184_0, Initial residual = 1, Final residual = 5.68145306793e-61, No Iterations 107
DILUPBiCGStab:  Solving for ILambda_185_0, Initial residual = 1, Final residual = 9.7285189201e-61, No Iterations 114
DILUPBiCGStab:  Solving for ILambda_186_0, Initial residual = 1, Final residual = 8.37673843577e-61, No Iterations 112
DILUPBiCGStab:  Solving for ILambda_187_0, Initial residual = 1, Final residual = 6.75517523354e-61, No Iterations 110
DILUPBiCGStab:  Solving for ILambda_188_0, Initial residual = 1, Final residual = 4.30631214416e-61, No Iterations 105
DILUPBiCGStab:  Solving for ILambda_189_0, Initial residual = 1, Final residual = 2.60147908398e-61, No Iterations 90
DILUPBiCGStab:  Solving for ILambda_190_0, Initial residual = 1, Final residual = 7.03215201292e-61, No Iterations 72
DILUPBiCGStab:  Solving for ILambda_191_0, Initial residual = 1, Final residual = 1.41008803146e-61, No Iterations 49
DILUPBiCGStab:  Solving for ILambda_192_0, Initial residual = 1, Final residual = 1.60143656218e-61, No Iterations 44
DILUPBiCGStab:  Solving for ILambda_193_0, Initial residual = 1, Final residual = 3.51124872359e-61, No Iterations 47
DILUPBiCGStab:  Solving for ILambda_194_0, Initial residual = 1, Final residual = 7.72695961493e-61, No Iterations 51
DILUPBiCGStab:  Solving for ILambda_195_0, Initial residual = 1, Final residual = 4.33074239279e-61, No Iterations 48
DILUPBiCGStab:  Solving for ILambda_196_0, Initial residual = 1, Final residual = 2.56441740386e-61, No Iterations 49
DILUPBiCGStab:  Solving for ILambda_197_0, Initial residual = 1, Final residual = 5.34725799537e-61, No Iterations 46
DILUPBiCGStab:  Solving for ILambda_198_0, Initial residual = 1, Final residual = 9.70437941804e-63, No Iterations 43
DILUPBiCGStab:  Solving for ILambda_199_0, Initial residual = 1, Final residual = 2.59677813529e-61, No Iterations 49
DILUPBiCGStab:  Solving for ILambda_200_0, Initial residual = 1, Final residual = 5.59143102515e-62, No Iterations 45
DILUPBiCGStab:  Solving for ILambda_201_0, Initial residual = 1, Final residual = 1.20607805604e-62, No Iterations 50
DILUPBiCGStab:  Solving for ILambda_202_0, Initial residual = 1, Final residual = 3.04089994781e-61, No Iterations 46
DILUPBiCGStab:  Solving for ILambda_203_0, Initial residual = 1, Final residual = 7.67467357943e-61, No Iterations 46
DILUPBiCGStab:  Solving for ILambda_204_0, Initial residual = 1, Final residual = 2.45812542998e-61, No Iterations 48
DILUPBiCGStab:  Solving for ILambda_205_0, Initial residual = 1, Final residual = 4.32279115497e-61, No Iterations 73
DILUPBiCGStab:  Solving for ILambda_206_0, Initial residual = 1, Final residual = 7.21688934931e-61, No Iterations 90
DILUPBiCGStab:  Solving for ILambda_207_0, Initial residual = 1, Final residual = 7.54319685848e-61, No Iterations 103
DILUPBiCGStab:  Solving for ILambda_208_0, Initial residual = 1, Final residual = 9.96243285925e-61, No Iterations 107
DILUPBiCGStab:  Solving for ILambda_209_0, Initial residual = 1, Final residual = 3.68028448523e-61, No Iterations 111
DILUPBiCGStab:  Solving for ILambda_210_0, Initial residual = 1, Final residual = 1.88930985491e-61, No Iterations 110
DILUPBiCGStab:  Solving for ILambda_211_0, Initial residual = 1, Final residual = 3.56966620701e-61, No Iterations 110
DILUPBiCGStab:  Solving for ILambda_212_0, Initial residual = 1, Final residual = 2.10226408371e-61, No Iterations 104
DILUPBiCGStab:  Solving for ILambda_213_0, Initial residual = 1, Final residual = 7.47611675057e-61, No Iterations 90
DILUPBiCGStab:  Solving for ILambda_214_0, Initial residual = 1, Final residual = 7.48030923669e-61, No Iterations 75
DILUPBiCGStab:  Solving for ILambda_215_0, Initial residual = 1, Final residual = 1.2127259728e-61, No Iterations 49
DILUPBiCGStab:  Solving for ILambda_216_0, Initial residual = 1, Final residual = 2.84395643653e-63, No Iterations 3
DILUPBiCGStab:  Solving for ILambda_217_0, Initial residual = 1, Final residual = 2.27149510552e-73, No Iterations 3
DILUPBiCGStab:  Solving for ILambda_218_0, Initial residual = 1, Final residual = 9.56212233835e-72, No Iterations 3
DILUPBiCGStab:  Solving for ILambda_219_0, Initial residual = 1, Final residual = 2.39998512607e-70, No Iterations 3
DILUPBiCGStab:  Solving for ILambda_220_0, Initial residual = 1, Final residual = 1.1675222344e-61, No Iterations 3
DILUPBiCGStab:  Solving for ILambda_221_0, Initial residual = 1, Final residual = 2.41249185864e-61, No Iterations 3
DILUPBiCGStab:  Solving for ILambda_222_0, Initial residual = 1, Final residual = 1.68245494316e-75, No Iterations 3
DILUPBiCGStab:  Solving for ILambda_223_0, Initial residual = 1, Final residual = 4.43671520968e-62, No Iterations 3
DILUPBiCGStab:  Solving for ILambda_224_0, Initial residual = 1, Final residual = 3.03749802849e-61, No Iterations 3
DILUPBiCGStab:  Solving for ILambda_225_0, Initial residual = 1, Final residual = 7.25784191889e-61, No Iterations 3
DILUPBiCGStab:  Solving for ILambda_226_0, Initial residual = 1, Final residual = 3.31571658583e-73, No Iterations 3
DILUPBiCGStab:  Solving for ILambda_227_0, Initial residual = 1, Final residual = 2.46310581574e-62, No Iterations 3
DILUPBiCGStab:  Solving for ILambda_228_0, Initial residual = 1, Final residual = 9.13895328887e-62, No Iterations 49
DILUPBiCGStab:  Solving for ILambda_229_0, Initial residual = 1, Final residual = 2.99705919949e-61, No Iterations 76
DILUPBiCGStab:  Solving for ILambda_230_0, Initial residual = 1, Final residual = 2.60937943451e-61, No Iterations 92
DILUPBiCGStab:  Solving for ILambda_231_0, Initial residual = 1, Final residual = 2.35551049606e-61, No Iterations 104
DILUPBiCGStab:  Solving for ILambda_232_0, Initial residual = 1, Final residual = 5.03488025618e-61, No Iterations 112
DILUPBiCGStab:  Solving for ILambda_233_0, Initial residual = 1, Final residual = 3.13150621426e-61, No Iterations 112
DILUPBiCGStab:  Solving for ILambda_234_0, Initial residual = 1, Final residual = 2.77892683124e-61, No Iterations 108
DILUPBiCGStab:  Solving for ILambda_235_0, Initial residual = 1, Final residual = 6.76138276803e-61, No Iterations 109
DILUPBiCGStab:  Solving for ILambda_236_0, Initial residual = 1, Final residual = 3.88344729725e-61, No Iterations 103
DILUPBiCGStab:  Solving for ILambda_237_0, Initial residual = 1, Final residual = 4.37430663973e-61, No Iterations 90
DILUPBiCGStab:  Solving for ILambda_238_0, Initial residual = 1, Final residual = 2.24350316117e-61, No Iterations 73
DILUPBiCGStab:  Solving for ILambda_239_0, Initial residual = 1, Final residual = 1.24826014169e-61, No Iterations 48
DILUPBiCGStab:  Solving for ILambda_240_0, Initial residual = 1, Final residual = 1.43405905082e-61, No Iterations 33
DILUPBiCGStab:  Solving for ILambda_241_0, Initial residual = 1, Final residual = 1.47817161831e-61, No Iterations 35
DILUPBiCGStab:  Solving for ILambda_242_0, Initial residual = 1, Final residual = 4.58796091101e-61, No Iterations 35
DILUPBiCGStab:  Solving for ILambda_243_0, Initial residual = 1, Final residual = 5.00252359195e-61, No Iterations 36
DILUPBiCGStab:  Solving for ILambda_244_0, Initial residual = 1, Final residual = 5.32325492511e-61, No Iterations 37
DILUPBiCGStab:  Solving for ILambda_245_0, Initial residual = 1, Final residual = 1.63918101887e-61, No Iterations 37
DILUPBiCGStab:  Solving for ILambda_246_0, Initial residual = 1, Final residual = 5.89581763532e-62, No Iterations 38
DILUPBiCGStab:  Solving for ILambda_247_0, Initial residual = 1, Final residual = 2.50268710185e-61, No Iterations 36
DILUPBiCGStab:  Solving for ILambda_248_0, Initial residual = 1, Final residual = 9.00510148266e-62, No Iterations 36
DILUPBiCGStab:  Solving for ILambda_249_0, Initial residual = 1, Final residual = 6.41900325233e-61, No Iterations 36
DILUPBiCGStab:  Solving for ILambda_250_0, Initial residual = 1, Final residual = 8.41921213029e-62, No Iterations 34
DILUPBiCGStab:  Solving for ILambda_251_0, Initial residual = 1, Final residual = 2.48175893129e-61, No Iterations 33
DILUPBiCGStab:  Solving for ILambda_252_0, Initial residual = 1, Final residual = 1.48377286848e-61, No Iterations 48
DILUPBiCGStab:  Solving for ILambda_253_0, Initial residual = 1, Final residual = 1.25657110377e-61, No Iterations 74
DILUPBiCGStab:  Solving for ILambda_254_0, Initial residual = 1, Final residual = 6.33199038351e-61, No Iterations 91
DILUPBiCGStab:  Solving for ILambda_255_0, Initial residual = 1, Final residual = 3.9364137509e-61, No Iterations 102
DILUPBiCGStab:  Solving for ILambda_256_0, Initial residual = 1, Final residual = 7.75834343723e-61, No Iterations 107
DILUPBiCGStab:  Solving for ILambda_257_0, Initial residual = 1, Final residual = 9.74606060705e-61, No Iterations 110
DILUPBiCGStab:  Solving for ILambda_258_0, Initial residual = 1, Final residual = 5.05263488592e-61, No Iterations 109
DILUPBiCGStab:  Solving for ILambda_259_0, Initial residual = 1, Final residual = 4.61965714508e-61, No Iterations 107
DILUPBiCGStab:  Solving for ILambda_260_0, Initial residual = 1, Final residual = 3.98275330213e-61, No Iterations 103
DILUPBiCGStab:  Solving for ILambda_261_0, Initial residual = 1, Final residual = 2.3742846892e-62, No Iterations 91
DILUPBiCGStab:  Solving for ILambda_262_0, Initial residual = 1, Final residual = 6.13781937362e-61, No Iterations 75
DILUPBiCGStab:  Solving for ILambda_263_0, Initial residual = 1, Final residual = 1.08023416721e-61, No Iterations 49
DILUPBiCGStab:  Solving for ILambda_264_0, Initial residual = 1, Final residual = 9.38623267698e-75, No Iterations 3
DILUPBiCGStab:  Solving for ILambda_265_0, Initial residual = 1, Final residual = 1.95607107651e-63, No Iterations 3
DILUPBiCGStab:  Solving for ILambda_266_0, Initial residual = 1, Final residual = 1.06163231178e-61, No Iterations 3
DILUPBiCGStab:  Solving for ILambda_267_0, Initial residual = 1, Final residual = 8.32661175397e-73, No Iterations 3
DILUPBiCGStab:  Solving for ILambda_268_0, Initial residual = 1, Final residual = 6.00589035828e-62, No Iterations 3
DILUPBiCGStab:  Solving for ILambda_269_0, Initial residual = 1, Final residual = 3.29323338357e-68, No Iterations 3
DILUPBiCGStab:  Solving for ILambda_270_0, Initial residual = 1, Final residual = 2.78062787852e-62, No Iterations 3
DILUPBiCGStab:  Solving for ILambda_271_0, Initial residual = 1, Final residual = 3.64639461401e-64, No Iterations 3
DILUPBiCGStab:  Solving for ILambda_272_0, Initial residual = 1, Final residual = 1.57743229405e-62, No Iterations 3
DILUPBiCGStab:  Solving for ILambda_273_0, Initial residual = 1, Final residual = 3.12457171559e-64, No Iterations 3
DILUPBiCGStab:  Solving for ILambda_274_0, Initial residual = 1, Final residual = 3.70291068736e-63, No Iterations 3
DILUPBiCGStab:  Solving for ILambda_275_0, Initial residual = 1, Final residual = 1.12967234351e-65, No Iterations 3
DILUPBiCGStab:  Solving for ILambda_276_0, Initial residual = 1, Final residual = 3.33007923432e-61, No Iterations 49
DILUPBiCGStab:  Solving for ILambda_277_0, Initial residual = 1, Final residual = 3.06113283404e-61, No Iterations 75
DILUPBiCGStab:  Solving for ILambda_278_0, Initial residual = 1, Final residual = 5.32127121281e-61, No Iterations 91
DILUPBiCGStab:  Solving for ILambda_279_0, Initial residual = 1, Final residual = 7.52688496889e-61, No Iterations 104
DILUPBiCGStab:  Solving for ILambda_280_0, Initial residual = 1, Final residual = 7.51975742904e-61, No Iterations 107
DILUPBiCGStab:  Solving for ILambda_281_0, Initial residual = 1, Final residual = 1.70421671058e-61, No Iterations 111
DILUPBiCGStab:  Solving for ILambda_282_0, Initial residual = 1, Final residual = 7.89696486799e-61, No Iterations 109
DILUPBiCGStab:  Solving for ILambda_283_0, Initial residual = 1, Final residual = 3.83929571641e-61, No Iterations 107
DILUPBiCGStab:  Solving for ILambda_284_0, Initial residual = 1, Final residual = 3.82379098636e-61, No Iterations 103
[...]
DILUPBiCGStab:  Solving for ILambda_140_0, Initial residual = 1.84375631896e-15, Final residual = 7.61099704318e-61, No Iterations 69
DILUPBiCGStab:  Solving for ILambda_141_0, Initial residual = 1.73927177799e-15, Final residual = 4.34095200093e-61, No Iterations 62
DILUPBiCGStab:  Solving for ILambda_142_0, Initial residual = 1.38734882715e-15, Final residual = 3.32743686743e-61, No Iterations 49
DILUPBiCGStab:  Solving for ILambda_143_0, Initial residual = 1.28206890575e-15, Final residual = 3.60823917275e-61, No Iterations 35
DILUPBiCGStab:  Solving for ILambda_144_0, Initial residual = 1.22270697344e-15, Final residual = 1.54050912122e-61, No Iterations 23
DILUPBiCGStab:  Solving for ILambda_145_0, Initial residual = 1.20255378767e-15, Final residual = 3.64492883283e-62, No Iterations 22
DILUPBiCGStab:  Solving for ILambda_146_0, Initial residual = 1.23166205172e-15, Final residual = 1.38471655991e-61, No Iterations 23
DILUPBiCGStab:  Solving for ILambda_147_0, Initial residual = 1.06798213394e-15, Final residual = 3.47816114872e-61, No Iterations 25
DILUPBiCGStab:  Solving for ILambda_148_0, Initial residual = 1.14912574298e-15, Final residual = 3.06255806794e-62, No Iterations 25
DILUPBiCGStab:  Solving for ILambda_149_0, Initial residual = 1.17347988408e-15, Final residual = 8.21065554764e-61, No Iterations 22
DILUPBiCGStab:  Solving for ILambda_150_0, Initial residual = 1.19195749365e-15, Final residual = 5.91470059929e-62, No Iterations 22
DILUPBiCGStab:  Solving for ILambda_151_0, Initial residual = 1.14452938959e-15, Final residual = 8.92014020337e-62, No Iterations 23
DILUPBiCGStab:  Solving for ILambda_152_0, Initial residual = 1.1535768427e-15, Final residual = 5.18473772991e-62, No Iterations 29
DILUPBiCGStab:  Solving for ILambda_153_0, Initial residual = 1.43476833777e-15, Final residual = 5.86678670135e-61, No Iterations 20
DILUPBiCGStab:  Solving for ILambda_154_0, Initial residual = 1.33871167154e-15, Final residual = 1.70485746196e-61, No Iterations 22
DILUPBiCGStab:  Solving for ILambda_155_0, Initial residual = 1.3260196349e-15, Final residual = 1.10201303118e-61, No Iterations 23
DILUPBiCGStab:  Solving for ILambda_156_0, Initial residual = 1.42444043963e-15, Final residual = 1.15830805341e-61, No Iterations 36
DILUPBiCGStab:  Solving for ILambda_157_0, Initial residual = 1.31690736653e-15, Final residual = 9.12978743223e-61, No Iterations 51
DILUPBiCGStab:  Solving for ILambda_158_0, Initial residual = 1.73118426622e-15, Final residual = 2.80379009741e-61, No Iterations 63
DILUPBiCGStab:  Solving for ILambda_159_0, Initial residual = 1.67416280701e-15, Final residual = 6.84578728537e-61, No Iterations 68
DILUPBiCGStab:  Solving for ILambda_160_0, Initial residual = 2.00435819405e-15, Final residual = 4.23761892252e-61, No Iterations 78
DILUPBiCGStab:  Solving for ILambda_161_0, Initial residual = 2.27459631666e-15, Final residual = 8.60044932509e-61, No Iterations 75
DILUPBiCGStab:  Solving for ILambda_162_0, Initial residual = 1.98739962063e-15, Final residual = 7.10740994028e-61, No Iterations 82
DILUPBiCGStab:  Solving for ILambda_163_0, Initial residual = 1.59393181054e-15, Final residual = 2.59525258779e-61, No Iterations 76
DILUPBiCGStab:  Solving for ILambda_164_0, Initial residual = 1.53957471377e-15, Final residual = 1.03193932193e-61, No Iterations 68
DILUPBiCGStab:  Solving for ILambda_165_0, Initial residual = 2.20134145047e-15, Final residual = 4.42595151132e-61, No Iterations 62
DILUPBiCGStab:  Solving for ILambda_166_0, Initial residual = 1.66111957666e-15, Final residual = 7.44676531524e-61, No Iterations 50
DILUPBiCGStab:  Solving for ILambda_167_0, Initial residual = 1.6128400375e-15, Final residual = 8.78178420667e-61, No Iterations 37
DILUPBiCGStab:  Solving for ILambda_168_0, Initial residual = 1.26452938405e-15, Final residual = 5.12508489857e-72, No Iterations 2
DILUPBiCGStab:  Solving for ILambda_169_0, Initial residual = 1.35876560963e-15, Final residual = 8.14113337679e-74, No Iterations 2
DILUPBiCGStab:  Solving for ILambda_170_0, Initial residual = 1.3910741084e-15, Final residual = 1.03352389425e-72, No Iterations 2
DILUPBiCGStab:  Solving for ILambda_171_0, Initial residual = 1.1491211851e-15, Final residual = 6.26468470122e-71, No Iterations 2
DILUPBiCGStab:  Solving for ILambda_172_0, Initial residual = 1.10195609219e-15, Final residual = 7.13667785638e-71, No Iterations 2
DILUPBiCGStab:  Solving for ILambda_173_0, Initial residual = 1.13912998954e-15, Final residual = 2.97762666894e-71, No Iterations 2
DILUPBiCGStab:  Solving for ILambda_174_0, Initial residual = 1.04562993345e-15, Final residual = 1.7676109648e-70, No Iterations 2
DILUPBiCGStab:  Solving for ILambda_175_0, Initial residual = 1.1512822693e-15, Final residual = 3.84402907536e-72, No Iterations 2
DILUPBiCGStab:  Solving for ILambda_176_0, Initial residual = 1.09858544623e-15, Final residual = 5.46105016596e-71, No Iterations 2
DILUPBiCGStab:  Solving for ILambda_177_0, Initial residual = 1.27823911881e-15, Final residual = 1.25357233607e-71, No Iterations 2
DILUPBiCGStab:  Solving for ILambda_178_0, Initial residual = 1.19049607013e-15, Final residual = 6.34734786283e-71, No Iterations 2
DILUPBiCGStab:  Solving for ILambda_179_0, Initial residual = 1.20102870294e-15, Final residual = 1.09793252059e-70, No Iterations 2
DILUPBiCGStab:  Solving for ILambda_180_0, Initial residual = 1.61866753268e-15, Final residual = 2.09137421971e-61, No Iterations 36
DILUPBiCGStab:  Solving for ILambda_181_0, Initial residual = 1.61335072086e-15, Final residual = 3.05981556561e-61, No Iterations 50
DILUPBiCGStab:  Solving for ILambda_182_0, Initial residual = 2.03816755221e-15, Final residual = 3.60211352867e-61, No Iterations 65
DILUPBiCGStab:  Solving for ILambda_183_0, Initial residual = 1.72570201869e-15, Final residual = 2.86833931823e-61, No Iterations 71
DILUPBiCGStab:  Solving for ILambda_184_0, Initial residual = 2.07517856929e-15, Final residual = 2.6885584101e-62, No Iterations 75
DILUPBiCGStab:  Solving for ILambda_185_0, Initial residual = 2.04740056998e-15, Final residual = 8.73458447655e-61, No Iterations 78
DILUPBiCGStab:  Solving for ILambda_186_0, Initial residual = 2.00348062421e-15, Final residual = 2.21947772516e-61, No Iterations 75
DILUPBiCGStab:  Solving for ILambda_187_0, Initial residual = 1.63151692698e-15, Final residual = 7.1668866986e-61, No Iterations 77
DILUPBiCGStab:  Solving for ILambda_188_0, Initial residual = 1.94702846593e-15, Final residual = 8.02914050972e-61, No Iterations 71
DILUPBiCGStab:  Solving for ILambda_189_0, Initial residual = 1.97511523989e-15, Final residual = 9.70534227252e-61, No Iterations 63
DILUPBiCGStab:  Solving for ILambda_190_0, Initial residual = 1.67953019576e-15, Final residual = 9.79638616491e-61, No Iterations 49
DILUPBiCGStab:  Solving for ILambda_191_0, Initial residual = 1.42336198161e-15, Final residual = 2.80711097601e-61, No Iterations 37
DILUPBiCGStab:  Solving for ILambda_192_0, Initial residual = 3.00504497979e-16, Final residual = 3.20432164499e-61, No Iterations 20
DILUPBiCGStab:  Solving for ILambda_193_0, Initial residual = 3.01273577049e-16, Final residual = 4.15040743017e-62, No Iterations 19
DILUPBiCGStab:  Solving for ILambda_194_0, Initial residual = 3.21418412121e-16, Final residual = 1.0641561597e-61, No Iterations 19
DILUPBiCGStab:  Solving for ILambda_195_0, Initial residual = 3.38286793465e-16, Final residual = 5.29022729638e-61, No Iterations 20
DILUPBiCGStab:  Solving for ILambda_196_0, Initial residual = 2.71620739728e-16, Final residual = 1.26485783777e-61, No Iterations 21
DILUPBiCGStab:  Solving for ILambda_197_0, Initial residual = 2.20291240823e-16, Final residual = 4.70555820065e-62, No Iterations 20
DILUPBiCGStab:  Solving for ILambda_198_0, Initial residual = 2.32906294324e-16, Final residual = 6.26675427471e-62, No Iterations 21
DILUPBiCGStab:  Solving for ILambda_199_0, Initial residual = 2.80000474428e-16, Final residual = 1.23628227665e-61, No Iterations 20
DILUPBiCGStab:  Solving for ILambda_200_0, Initial residual = 4.38426909675e-16, Final residual = 2.9495017614e-62, No Iterations 20
DILUPBiCGStab:  Solving for ILambda_201_0, Initial residual = 4.04523428082e-16, Final residual = 2.5865232855e-61, No Iterations 21
DILUPBiCGStab:  Solving for ILambda_202_0, Initial residual = 3.96686367736e-16, Final residual = 2.28074075925e-61, No Iterations 20
DILUPBiCGStab:  Solving for ILambda_203_0, Initial residual = 3.79221223471e-16, Final residual = 2.9216963303e-61, No Iterations 20
DILUPBiCGStab:  Solving for ILambda_204_0, Initial residual = 3.58813523121e-16, Final residual = 6.35288184959e-61, No Iterations 34
DILUPBiCGStab:  Solving for ILambda_205_0, Initial residual = 3.53086347001e-16, Final residual = 3.2157760112e-61, No Iterations 51
DILUPBiCGStab:  Solving for ILambda_206_0, Initial residual = 4.03024198472e-16, Final residual = 2.28853326747e-62, No Iterations 63
DILUPBiCGStab:  Solving for ILambda_207_0, Initial residual = 4.88364830234e-16, Final residual = 2.55940662743e-61, No Iterations 70
DILUPBiCGStab:  Solving for ILambda_208_0, Initial residual = 3.00257339394e-16, Final residual = 4.14545310123e-61, No Iterations 69
DILUPBiCGStab:  Solving for ILambda_209_0, Initial residual = 3.8299955766e-16, Final residual = 9.81201279262e-61, No Iterations 75
DILUPBiCGStab:  Solving for ILambda_210_0, Initial residual = 6.12842209355e-16, Final residual = 4.84396210915e-61, No Iterations 86
DILUPBiCGStab:  Solving for ILambda_211_0, Initial residual = 3.38922671697e-16, Final residual = 2.65270563252e-61, No Iterations 74
DILUPBiCGStab:  Solving for ILambda_212_0, Initial residual = 6.38895624472e-16, Final residual = 5.42437062241e-61, No Iterations 67
DILUPBiCGStab:  Solving for ILambda_213_0, Initial residual = 5.3841708621e-16, Final residual = 4.9737576381e-61, No Iterations 58
DILUPBiCGStab:  Solving for ILambda_214_0, Initial residual = 4.61241007742e-16, Final residual = 8.48434983089e-61, No Iterations 48
DILUPBiCGStab:  Solving for ILambda_215_0, Initial residual = 4.21202958029e-16, Final residual = 1.3096008793e-61, No Iterations 34
DILUPBiCGStab:  Solving for ILambda_216_0, Initial residual = 3.63775691153e-16, Final residual = 3.36314517446e-61, No Iterations 2
DILUPBiCGStab:  Solving for ILambda_217_0, Initial residual = 3.94529506945e-16, Final residual = 3.50651362578e-75, No Iterations 2
DILUPBiCGStab:  Solving for ILambda_218_0, Initial residual = 4.0613413782e-16, Final residual = 9.33752777843e-75, No Iterations 2
DILUPBiCGStab:  Solving for ILambda_219_0, Initial residual = 4.28381176361e-16, Final residual = 7.28768340218e-75, No Iterations 2
DILUPBiCGStab:  Solving for ILambda_220_0, Initial residual = 2.64333462123e-16, Final residual = 2.07180565179e-61, No Iterations 2
DILUPBiCGStab:  Solving for ILambda_221_0, Initial residual = 2.36833928416e-16, Final residual = 3.10038402277e-61, No Iterations 2
DILUPBiCGStab:  Solving for ILambda_222_0, Initial residual = 2.38511551612e-16, Final residual = 8.65526816463e-74, No Iterations 2
DILUPBiCGStab:  Solving for ILambda_223_0, Initial residual = 2.66868780196e-16, Final residual = 3.37965106791e-75, No Iterations 2
DILUPBiCGStab:  Solving for ILambda_224_0, Initial residual = 3.33748443013e-16, Final residual = 7.4059669378e-61, No Iterations 2
DILUPBiCGStab:  Solving for ILambda_225_0, Initial residual = 3.03166340197e-16, Final residual = 3.5892398036e-75, No Iterations 2
DILUPBiCGStab:  Solving for ILambda_226_0, Initial residual = 3.09420162875e-16, Final residual = 6.213033296e-61, No Iterations 2
DILUPBiCGStab:  Solving for ILambda_227_0, Initial residual = 3.06258092179e-16, Final residual = 4.4719877727e-61, No Iterations 2
DILUPBiCGStab:  Solving for ILambda_228_0, Initial residual = 4.25669617986e-16, Final residual = 6.74184716575e-61, No Iterations 35
DILUPBiCGStab:  Solving for ILambda_229_0, Initial residual = 4.56061946566e-16, Final residual = 7.51903364914e-61, No Iterations 49
DILUPBiCGStab:  Solving for ILambda_230_0, Initial residual = 4.83364742409e-16, Final residual = 6.66903071557e-61, No Iterations 60
DILUPBiCGStab:  Solving for ILambda_231_0, Initial residual = 5.65432055199e-16, Final residual = 2.63231040787e-61, No Iterations 68
DILUPBiCGStab:  Solving for ILambda_232_0, Initial residual = 5.07970463869e-16, Final residual = 7.11547877891e-61, No Iterations 72
DILUPBiCGStab:  Solving for ILambda_233_0, Initial residual = 5.61010043198e-16, Final residual = 2.54633316139e-61, No Iterations 82
DILUPBiCGStab:  Solving for ILambda_234_0, Initial residual = 3.48311002189e-16, Final residual = 2.6867149441e-61, No Iterations 75
DILUPBiCGStab:  Solving for ILambda_235_0, Initial residual = 4.53949597975e-16, Final residual = 2.51113299248e-61, No Iterations 75
DILUPBiCGStab:  Solving for ILambda_236_0, Initial residual = 5.42625082451e-16, Final residual = 3.4103080288e-61, No Iterations 69
DILUPBiCGStab:  Solving for ILambda_237_0, Initial residual = 4.71199552991e-16, Final residual = 9.64034915245e-62, No Iterations 65
DILUPBiCGStab:  Solving for ILambda_238_0, Initial residual = 3.99263394569e-16, Final residual = 1.76429052289e-61, No Iterations 53
DILUPBiCGStab:  Solving for ILambda_239_0, Initial residual = 3.15629069333e-16, Final residual = 5.26677137926e-61, No Iterations 33
DILUPBiCGStab:  Solving for ILambda_240_0, Initial residual = 8.42442889176e-17, Final residual = 5.67843386553e-62, No Iterations 17
DILUPBiCGStab:  Solving for ILambda_241_0, Initial residual = 8.80842136792e-17, Final residual = 5.98151812482e-61, No Iterations 16
DILUPBiCGStab:  Solving for ILambda_242_0, Initial residual = 1.22016610358e-16, Final residual = 1.23283137245e-61, No Iterations 18
DILUPBiCGStab:  Solving for ILambda_243_0, Initial residual = 1.24319220404e-16, Final residual = 3.87441951225e-62, No Iterations 17
DILUPBiCGStab:  Solving for ILambda_244_0, Initial residual = 1.21679520141e-16, Final residual = 9.95495769677e-63, No Iterations 17
DILUPBiCGStab:  Solving for ILambda_245_0, Initial residual = 1.37269628724e-16, Final residual = 9.61471683795e-62, No Iterations 16
DILUPBiCGStab:  Solving for ILambda_246_0, Initial residual = 1.3597328001e-16, Final residual = 1.98834840244e-61, No Iterations 16
DILUPBiCGStab:  Solving for ILambda_247_0, Initial residual = 1.43113147342e-16, Final residual = 2.27715353804e-61, No Iterations 18
DILUPBiCGStab:  Solving for ILambda_248_0, Initial residual = 1.40216336392e-16, Final residual = 3.46077209343e-61, No Iterations 17
DILUPBiCGStab:  Solving for ILambda_249_0, Initial residual = 1.39289681551e-16, Final residual = 1.47190480654e-61, No Iterations 17
DILUPBiCGStab:  Solving for ILambda_250_0, Initial residual = 1.0507004354e-16, Final residual = 3.71180388647e-61, No Iterations 17
DILUPBiCGStab:  Solving for ILambda_251_0, Initial residual = 1.02893824726e-16, Final residual = 7.8149553266e-62, No Iterations 17
DILUPBiCGStab:  Solving for ILambda_252_0, Initial residual = 1.12130005004e-16, Final residual = 7.84878958331e-61, No Iterations 33
DILUPBiCGStab:  Solving for ILambda_253_0, Initial residual = 1.32497316999e-16, Final residual = 8.74902527474e-61, No Iterations 51
DILUPBiCGStab:  Solving for ILambda_254_0, Initial residual = 1.6652259064e-16, Final residual = 3.56676741531e-61, No Iterations 61
DILUPBiCGStab:  Solving for ILambda_255_0, Initial residual = 1.92481990064e-16, Final residual = 6.0984772833e-61, No Iterations 70
DILUPBiCGStab:  Solving for ILambda_256_0, Initial residual = 1.48998241278e-16, Final residual = 3.08504741284e-61, No Iterations 72
DILUPBiCGStab:  Solving for ILambda_257_0, Initial residual = 1.97861929047e-16, Final residual = 7.5593545327e-61, No Iterations 81
DILUPBiCGStab:  Solving for ILambda_258_0, Initial residual = 2.05182831712e-16, Final residual = 3.86776380262e-61, No Iterations 78
DILUPBiCGStab:  Solving for ILambda_259_0, Initial residual = 1.93348079162e-16, Final residual = 5.84428838716e-61, No Iterations 74
DILUPBiCGStab:  Solving for ILambda_260_0, Initial residual = 2.17646948813e-16, Final residual = 7.97115044581e-61, No Iterations 72
DILUPBiCGStab:  Solving for ILambda_261_0, Initial residual = 1.70466852626e-16, Final residual = 8.927008363e-61, No Iterations 62
DILUPBiCGStab:  Solving for ILambda_262_0, Initial residual = 1.37400897764e-16, Final residual = 2.75994086176e-61, No Iterations 51
DILUPBiCGStab:  Solving for ILambda_263_0, Initial residual = 1.09837871287e-16, Final residual = 6.48459434988e-61, No Iterations 32
DILUPBiCGStab:  Solving for ILambda_264_0, Initial residual = 1.05930779218e-16, Final residual = 1.33729167644e-74, No Iterations 2
DILUPBiCGStab:  Solving for ILambda_265_0, Initial residual = 1.09385729382e-16, Final residual = 2.95075466933e-61, No Iterations 2
DILUPBiCGStab:  Solving for ILambda_266_0, Initial residual = 1.4289041853e-16, Final residual = 1.5865137741e-74, No Iterations 2
DILUPBiCGStab:  Solving for ILambda_267_0, Initial residual = 1.42031350312e-16, Final residual = 6.78041111601e-76, No Iterations 2
DILUPBiCGStab:  Solving for ILambda_268_0, Initial residual = 1.38951951313e-16, Final residual = 4.78949738783e-61, No Iterations 2
DILUPBiCGStab:  Solving for ILambda_269_0, Initial residual = 1.36670725253e-16, Final residual = 3.23133259273e-61, No Iterations 2
DILUPBiCGStab:  Solving for ILambda_270_0, Initial residual = 1.36667441588e-16, Final residual = 7.57938880904e-61, No Iterations 2
DILUPBiCGStab:  Solving for ILambda_271_0, Initial residual = 1.25185489128e-16, Final residual = 2.99414484771e-61, No Iterations 2
DILUPBiCGStab:  Solving for ILambda_272_0, Initial residual = 1.23974385696e-16, Final residual = 6.75238821894e-75, No Iterations 2
DILUPBiCGStab:  Solving for ILambda_273_0, Initial residual = 1.21081554512e-16, Final residual = 9.30573707367e-62, No Iterations 2
DILUPBiCGStab:  Solving for ILambda_274_0, Initial residual = 8.47565483075e-17, Final residual = 5.46882551428e-61, No Iterations 2
DILUPBiCGStab:  Solving for ILambda_275_0, Initial residual = 8.0610558311e-17, Final residual = 3.03007664714e-61, No Iterations 2
DILUPBiCGStab:  Solving for ILambda_276_0, Initial residual = 1.21906234102e-16, Final residual = 3.83354979784e-61, No Iterations 35
DILUPBiCGStab:  Solving for ILambda_277_0, Initial residual = 1.45987129916e-16, Final residual = 9.88651770133e-61, No Iterations 50
DILUPBiCGStab:  Solving for ILambda_278_0, Initial residual = 1.98215180757e-16, Final residual = 6.82101613203e-61, No Iterations 60
DILUPBiCGStab:  Solving for ILambda_279_0, Initial residual = 2.32083896262e-16, Final residual = 4.4030071927e-61, No Iterations 70
DILUPBiCGStab:  Solving for ILambda_280_0, Initial residual = 1.99637533597e-16, Final residual = 6.97937297392e-61, No Iterations 75
DILUPBiCGStab:  Solving for ILambda_281_0, Initial residual = 2.09378573091e-16, Final residual = 3.07360991933e-61, No Iterations 77
DILUPBiCGStab:  Solving for ILambda_282_0, Initial residual = 2.01019282857e-16, Final residual = 3.18512879517e-62, No Iterations 79
DILUPBiCGStab:  Solving for ILambda_283_0, Initial residual = 2.00962840375e-16, Final residual = 6.539059059e-61, No Iterations 78
DILUPBiCGStab:  Solving for ILambda_284_0, Initial residual = 1.72587164137e-16, Final residual = 8.1321569205e-61, No Iterations 68
DILUPBiCGStab:  Solving for ILambda_285_0, Initial residual = 1.96797761894e-16, Final residual = 6.02110855531e-61, No Iterations 60
DILUPBiCGStab:  Solving for ILambda_286_0, Initial residual = 1.19090495162e-16, Final residual = 5.3362171749e-61, No Iterations 49
DILUPBiCGStab:  Solving for ILambda_287_0, Initial residual = 8.94517551829e-17, Final residual = 1.98559511015e-61, No Iterations 34
min/max(T) = 1000, 1000
ExecutionTime = 689.85 s  ClockTime = 691 s

writeObjects writeObjects1.writeObjects write:
    writing object a
    writing object qem
End

