/*---------------------------------------------------------------------------*\
| =========                 |                                                 |
| \\      /  F ield         | OpenFOAM: The Open Source CFD Toolbox           |
|  \\    /   O peration     | Version:  2306                                  |
|   \\  /    A nd           | Website:  www.openfoam.com                      |
|    \\/     M anipulation  |                                                 |
\*---------------------------------------------------------------------------*/
Build  : _fbf00d6b-20230626 OPENFOAM=2306 version=2306
Arch   : "LSB;label=32;scalar=64"
Exec   : fireRADFoam_MaCFP
Date   : Mar 12 2024
Time   : 19:31:22
Host   : pop-os
PID    : 173249
I/O    : uncollated
Case   : /home/rafay/Desktop/Study/Radiative_Heat_Transfer/Local_copy_RHT2324/01_Projects/02_Rafay/Case_1_q1D_SolidAngle/new_case3/th_6-ph_12/tau_0.0001/res_2
nProcs : 1
trapFpe: Floating point exception trapping enabled (FOAM_SIGFPE).
fileModificationChecking : Monitoring run-time modified files using timeStampMaster (fileModificationSkew 5, maxFileModificationPolls 20)
allowSystemOperations : Allowing user-supplied system call operations

// * * * * * * * * * * * * * * * * * * * * * * * * * * * * * * * * * * * * * //
Create time

Create mesh for time = 0


PIMPLE: no residual control data found. Calculations will employ 10 corrector loops

Reading thermophysical properties

Selecting thermodynamics package 
{
    type            hePsiThermo;
    mixture         singleStepReactingMixture;
    transport       sutherland;
    thermo          janaf;
    energy          sensibleEnthalpy;
    equationOfState perfectGas;
    specie          specie;
}

Selecting chemistryReader foamChemistryReader
    elements not defined in "/home/rafay/Desktop/Study/Radiative_Heat_Transfer/Local_copy_RHT2324/01_Projects/02_Rafay/Case_1_q1D_SolidAngle/new_case3/th_6-ph_12/tau_0.0001/res_2/constant/reactions"
Fuel heat of combustion :47168962.4726
stoichiometric air-fuel ratio :14.6914056505
stoichiometric oxygen-fuel ratio :3.42181919285
Maximum products mass concentrations:
    H2O: 0.0818486943001
    CO2: 0.199950099979
    N2: 0.718201205721
Creating component thermo properties:
    multi-component carrier - 6 species
    no liquid components
    no solid components
Creating field rho


Reading field U

Reading/calculating face flux field phi

Selecting radiationModel fvDOM
Selecting absorptionEmissionModel constantAbsorptionEmission
Selecting scatterModel none
Selecting sootModel none
fvDOM : Allocated 288 rays with average orientation:
	I0 : dAve : 	(0.000387488209079 0.00591192763451 0.0163624617374) : omega : 	0.0175372336349 : d : 	(0.0169275754541 0.25826489366 0.965925826289)
	I1 : dAve : 	(0.00115583459655 0.00581077291359 0.0163624617374) : omega : 	0.0175372336349 : d : 	(0.050493090853 0.253845909725 0.965925826289)
	I2 : dAve : 	(0.00190440433361 0.00561019425706 0.0163624617374) : omega : 	0.0175372336349 : d : 	(0.083194655468 0.245083551895 0.965925826289)
	I3 : dAve : 	(0.00262038918453 0.00531362362136 0.0163624617374) : omega : 	0.0175372336349 : d : 	(0.114472736462 0.232127746542 0.965925826289)
	I4 : dAve : 	(0.00329153844998 0.00492613541228 0.0163624617374) : omega : 	0.0175372336349 : d : 	(0.143792157198 0.215200171088 0.965925826289)
	I5 : dAve : 	(0.00390636857998 0.00445435966052 0.0163624617374) : omega : 	0.0175372336349 : d : 	(0.170651254257 0.194590461042 0.965925826289)
	I6 : dAve : 	(0.00445435966052 0.00390636857998 0.0163624617374) : omega : 	0.0175372336349 : d : 	(0.194590461042 0.170651254257 0.965925826289)
	I7 : dAve : 	(0.00492613541228 0.00329153844998 0.0163624617374) : omega : 	0.0175372336349 : d : 	(0.215200171088 0.143792157198 0.965925826289)
	I8 : dAve : 	(0.00531362362136 0.00262038918453 0.0163624617374) : omega : 	0.0175372336349 : d : 	(0.232127746542 0.114472736462 0.965925826289)
	I9 : dAve : 	(0.00561019425706 0.00190440433361 0.0163624617374) : omega : 	0.0175372336349 : d : 	(0.245083551895 0.083194655468 0.965925826289)
	I10 : dAve : 	(0.00581077291359 0.00115583459655 0.0163624617374) : omega : 	0.0175372336349 : d : 	(0.253845909725 0.050493090853 0.965925826289)
	I11 : dAve : 	(0.00591192763451 0.000387488209079 0.0163624617374) : omega : 	0.0175372336349 : d : 	(0.25826489366 0.0169275754541 0.965925826289)
	I12 : dAve : 	(0.00591192763451 -0.000387488209079 0.0163624617374) : omega : 	0.0175372336349 : d : 	(0.25826489366 -0.0169275754541 0.965925826289)
	I13 : dAve : 	(0.00581077291359 -0.00115583459655 0.0163624617374) : omega : 	0.0175372336349 : d : 	(0.253845909725 -0.050493090853 0.965925826289)
	I14 : dAve : 	(0.00561019425706 -0.00190440433361 0.0163624617374) : omega : 	0.0175372336349 : d : 	(0.245083551895 -0.083194655468 0.965925826289)
	I15 : dAve : 	(0.00531362362136 -0.00262038918453 0.0163624617374) : omega : 	0.0175372336349 : d : 	(0.232127746542 -0.114472736462 0.965925826289)
	I16 : dAve : 	(0.00492613541228 -0.00329153844998 0.0163624617374) : omega : 	0.0175372336349 : d : 	(0.215200171088 -0.143792157198 0.965925826289)
	I17 : dAve : 	(0.00445435966052 -0.00390636857998 0.0163624617374) : omega : 	0.0175372336349 : d : 	(0.194590461042 -0.170651254257 0.965925826289)
	I18 : dAve : 	(0.00390636857998 -0.00445435966052 0.0163624617374) : omega : 	0.0175372336349 : d : 	(0.170651254257 -0.194590461042 0.965925826289)
	I19 : dAve : 	(0.00329153844998 -0.00492613541228 0.0163624617374) : omega : 	0.0175372336349 : d : 	(0.143792157198 -0.215200171088 0.965925826289)
	I20 : dAve : 	(0.00262038918453 -0.00531362362136 0.0163624617374) : omega : 	0.0175372336349 : d : 	(0.114472736462 -0.232127746542 0.965925826289)
	I21 : dAve : 	(0.00190440433361 -0.00561019425706 0.0163624617374) : omega : 	0.0175372336349 : d : 	(0.083194655468 -0.245083551895 0.965925826289)
	I22 : dAve : 	(0.00115583459655 -0.00581077291359 0.0163624617374) : omega : 	0.0175372336349 : d : 	(0.050493090853 -0.253845909725 0.965925826289)
	I23 : dAve : 	(0.000387488209079 -0.00591192763451 0.0163624617374) : omega : 	0.0175372336349 : d : 	(0.0169275754541 -0.25826489366 0.965925826289)
	I24 : dAve : 	(-0.000387488209079 -0.00591192763451 0.0163624617374) : omega : 	0.0175372336349 : d : 	(-0.0169275754541 -0.25826489366 0.965925826289)
	I25 : dAve : 	(-0.00115583459655 -0.00581077291359 0.0163624617374) : omega : 	0.0175372336349 : d : 	(-0.050493090853 -0.253845909725 0.965925826289)
	I26 : dAve : 	(-0.00190440433361 -0.00561019425706 0.0163624617374) : omega : 	0.0175372336349 : d : 	(-0.083194655468 -0.245083551895 0.965925826289)
	I27 : dAve : 	(-0.00262038918453 -0.00531362362136 0.0163624617374) : omega : 	0.0175372336349 : d : 	(-0.114472736462 -0.232127746542 0.965925826289)
	I28 : dAve : 	(-0.00329153844998 -0.00492613541228 0.0163624617374) : omega : 	0.0175372336349 : d : 	(-0.143792157198 -0.215200171088 0.965925826289)
	I29 : dAve : 	(-0.00390636857998 -0.00445435966052 0.0163624617374) : omega : 	0.0175372336349 : d : 	(-0.170651254257 -0.194590461042 0.965925826289)
	I30 : dAve : 	(-0.00445435966052 -0.00390636857998 0.0163624617374) : omega : 	0.0175372336349 : d : 	(-0.194590461042 -0.170651254257 0.965925826289)
	I31 : dAve : 	(-0.00492613541228 -0.00329153844998 0.0163624617374) : omega : 	0.0175372336349 : d : 	(-0.215200171088 -0.143792157198 0.965925826289)
	I32 : dAve : 	(-0.00531362362136 -0.00262038918453 0.0163624617374) : omega : 	0.0175372336349 : d : 	(-0.232127746542 -0.114472736462 0.965925826289)
	I33 : dAve : 	(-0.00561019425706 -0.00190440433361 0.0163624617374) : omega : 	0.0175372336349 : d : 	(-0.245083551895 -0.083194655468 0.965925826289)
	I34 : dAve : 	(-0.00581077291359 -0.00115583459655 0.0163624617374) : omega : 	0.0175372336349 : d : 	(-0.253845909725 -0.050493090853 0.965925826289)
	I35 : dAve : 	(-0.00591192763451 -0.000387488209079 0.0163624617374) : omega : 	0.0175372336349 : d : 	(-0.25826489366 -0.0169275754541 0.965925826289)
	I36 : dAve : 	(-0.00591192763451 0.000387488209079 0.0163624617374) : omega : 	0.0175372336349 : d : 	(-0.25826489366 0.0169275754541 0.965925826289)
	I37 : dAve : 	(-0.00581077291359 0.00115583459655 0.0163624617374) : omega : 	0.0175372336349 : d : 	(-0.253845909725 0.050493090853 0.965925826289)
	I38 : dAve : 	(-0.00561019425706 0.00190440433361 0.0163624617374) : omega : 	0.0175372336349 : d : 	(-0.245083551895 0.083194655468 0.965925826289)
	I39 : dAve : 	(-0.00531362362136 0.00262038918453 0.0163624617374) : omega : 	0.0175372336349 : d : 	(-0.232127746542 0.114472736462 0.965925826289)
	I40 : dAve : 	(-0.00492613541228 0.00329153844998 0.0163624617374) : omega : 	0.0175372336349 : d : 	(-0.215200171088 0.143792157198 0.965925826289)
	I41 : dAve : 	(-0.00445435966052 0.00390636857998 0.0163624617374) : omega : 	0.0175372336349 : d : 	(-0.194590461042 0.170651254257 0.965925826289)
	I42 : dAve : 	(-0.00390636857998 0.00445435966052 0.0163624617374) : omega : 	0.0175372336349 : d : 	(-0.170651254257 0.194590461042 0.965925826289)
	I43 : dAve : 	(-0.00329153844998 0.00492613541228 0.0163624617374) : omega : 	0.0175372336349 : d : 	(-0.143792157198 0.215200171088 0.965925826289)
	I44 : dAve : 	(-0.00262038918453 0.00531362362136 0.0163624617374) : omega : 	0.0175372336349 : d : 	(-0.114472736462 0.232127746542 0.965925826289)
	I45 : dAve : 	(-0.00190440433361 0.00561019425706 0.0163624617374) : omega : 	0.0175372336349 : d : 	(-0.083194655468 0.245083551895 0.965925826289)
	I46 : dAve : 	(-0.00115583459655 0.00581077291359 0.0163624617374) : omega : 	0.0175372336349 : d : 	(-0.050493090853 0.253845909725 0.965925826289)
	I47 : dAve : 	(-0.000387488209079 0.00591192763451 0.0163624617374) : omega : 	0.0175372336349 : d : 	(-0.0169275754541 0.25826489366 0.965925826289)
	I48 : dAve : 	(0.00223973005487 0.034171677215 0.0327249234749) : omega : 	0.0479126133149 : d : 	(0.0462469961895 0.70559281129 0.707106781187)
	I49 : dAve : 	(0.00668086776241 0.0335869903436 0.0327249234749) : omega : 	0.0479126133149 : d : 	(0.137949689641 0.693519922661 0.707106781187)
	I50 : dAve : 	(0.0110076939702 0.0324276207555 0.0327249234749) : omega : 	0.0479126133149 : d : 	(0.227292025657 0.669580715876 0.707106781187)
	I51 : dAve : 	(0.0151461754823 0.0307134055855 0.0327249234749) : omega : 	0.0479126133149 : d : 	(0.312745332096 0.634184797399 0.707106781187)
	I52 : dAve : 	(0.0190255017326 0.0284736755306 0.0327249234749) : omega : 	0.0479126133149 : d : 	(0.392847479194 0.58793780121 0.707106781187)
	I53 : dAve : 	(0.0225792963734 0.025746752993 0.0327249234749) : omega : 	0.0479126133149 : d : 	(0.466227897004 0.531631026234 0.707106781187)
	I54 : dAve : 	(0.025746752993 0.0225792963734 0.0327249234749) : omega : 	0.0479126133149 : d : 	(0.531631026234 0.466227897004 0.707106781187)
	I55 : dAve : 	(0.0284736755306 0.0190255017326 0.0327249234749) : omega : 	0.0479126133149 : d : 	(0.58793780121 0.392847479194 0.707106781187)
	I56 : dAve : 	(0.0307134055855 0.0151461754823 0.0327249234749) : omega : 	0.0479126133149 : d : 	(0.634184797399 0.312745332096 0.707106781187)
	I57 : dAve : 	(0.0324276207555 0.0110076939702 0.0327249234749) : omega : 	0.0479126133149 : d : 	(0.669580715876 0.227292025657 0.707106781187)
	I58 : dAve : 	(0.0335869903436 0.00668086776241 0.0327249234749) : omega : 	0.0479126133149 : d : 	(0.693519922661 0.137949689641 0.707106781187)
	I59 : dAve : 	(0.034171677215 0.00223973005487 0.0327249234749) : omega : 	0.0479126133149 : d : 	(0.70559281129 0.0462469961895 0.707106781187)
	I60 : dAve : 	(0.034171677215 -0.00223973005487 0.0327249234749) : omega : 	0.0479126133149 : d : 	(0.70559281129 -0.0462469961895 0.707106781187)
	I61 : dAve : 	(0.0335869903436 -0.00668086776241 0.0327249234749) : omega : 	0.0479126133149 : d : 	(0.693519922661 -0.137949689641 0.707106781187)
	I62 : dAve : 	(0.0324276207555 -0.0110076939702 0.0327249234749) : omega : 	0.0479126133149 : d : 	(0.669580715876 -0.227292025657 0.707106781187)
	I63 : dAve : 	(0.0307134055855 -0.0151461754823 0.0327249234749) : omega : 	0.0479126133149 : d : 	(0.634184797399 -0.312745332096 0.707106781187)
	I64 : dAve : 	(0.0284736755306 -0.0190255017326 0.0327249234749) : omega : 	0.0479126133149 : d : 	(0.58793780121 -0.392847479194 0.707106781187)
	I65 : dAve : 	(0.025746752993 -0.0225792963734 0.0327249234749) : omega : 	0.0479126133149 : d : 	(0.531631026234 -0.466227897004 0.707106781187)
	I66 : dAve : 	(0.0225792963734 -0.025746752993 0.0327249234749) : omega : 	0.0479126133149 : d : 	(0.466227897004 -0.531631026234 0.707106781187)
	I67 : dAve : 	(0.0190255017326 -0.0284736755306 0.0327249234749) : omega : 	0.0479126133149 : d : 	(0.392847479194 -0.58793780121 0.707106781187)
	I68 : dAve : 	(0.0151461754823 -0.0307134055855 0.0327249234749) : omega : 	0.0479126133149 : d : 	(0.312745332096 -0.634184797399 0.707106781187)
	I69 : dAve : 	(0.0110076939702 -0.0324276207555 0.0327249234749) : omega : 	0.0479126133149 : d : 	(0.227292025657 -0.669580715876 0.707106781187)
	I70 : dAve : 	(0.00668086776241 -0.0335869903436 0.0327249234749) : omega : 	0.0479126133149 : d : 	(0.137949689641 -0.693519922661 0.707106781187)
	I71 : dAve : 	(0.00223973005487 -0.034171677215 0.0327249234749) : omega : 	0.0479126133149 : d : 	(0.0462469961895 -0.70559281129 0.707106781187)
	I72 : dAve : 	(-0.00223973005487 -0.034171677215 0.0327249234749) : omega : 	0.0479126133149 : d : 	(-0.0462469961895 -0.70559281129 0.707106781187)
	I73 : dAve : 	(-0.00668086776241 -0.0335869903436 0.0327249234749) : omega : 	0.0479126133149 : d : 	(-0.137949689641 -0.693519922661 0.707106781187)
	I74 : dAve : 	(-0.0110076939702 -0.0324276207555 0.0327249234749) : omega : 	0.0479126133149 : d : 	(-0.227292025657 -0.669580715876 0.707106781187)
	I75 : dAve : 	(-0.0151461754823 -0.0307134055855 0.0327249234749) : omega : 	0.0479126133149 : d : 	(-0.312745332096 -0.634184797399 0.707106781187)
	I76 : dAve : 	(-0.0190255017326 -0.0284736755306 0.0327249234749) : omega : 	0.0479126133149 : d : 	(-0.392847479194 -0.58793780121 0.707106781187)
	I77 : dAve : 	(-0.0225792963734 -0.025746752993 0.0327249234749) : omega : 	0.0479126133149 : d : 	(-0.466227897004 -0.531631026234 0.707106781187)
	I78 : dAve : 	(-0.025746752993 -0.0225792963734 0.0327249234749) : omega : 	0.0479126133149 : d : 	(-0.531631026234 -0.466227897004 0.707106781187)
	I79 : dAve : 	(-0.0284736755306 -0.0190255017326 0.0327249234749) : omega : 	0.0479126133149 : d : 	(-0.58793780121 -0.392847479194 0.707106781187)
	I80 : dAve : 	(-0.0307134055855 -0.0151461754823 0.0327249234749) : omega : 	0.0479126133149 : d : 	(-0.634184797399 -0.312745332096 0.707106781187)
	I81 : dAve : 	(-0.0324276207555 -0.0110076939702 0.0327249234749) : omega : 	0.0479126133149 : d : 	(-0.669580715876 -0.227292025657 0.707106781187)
	I82 : dAve : 	(-0.0335869903436 -0.00668086776241 0.0327249234749) : omega : 	0.0479126133149 : d : 	(-0.693519922661 -0.137949689641 0.707106781187)
	I83 : dAve : 	(-0.034171677215 -0.00223973005487 0.0327249234749) : omega : 	0.0479126133149 : d : 	(-0.70559281129 -0.0462469961895 0.707106781187)
	I84 : dAve : 	(-0.034171677215 0.00223973005487 0.0327249234749) : omega : 	0.0479126133149 : d : 	(-0.70559281129 0.0462469961895 0.707106781187)
	I85 : dAve : 	(-0.0335869903436 0.00668086776241 0.0327249234749) : omega : 	0.0479126133149 : d : 	(-0.693519922661 0.137949689641 0.707106781187)
	I86 : dAve : 	(-0.0324276207555 0.0110076939702 0.0327249234749) : omega : 	0.0479126133149 : d : 	(-0.669580715876 0.227292025657 0.707106781187)
	I87 : dAve : 	(-0.0307134055855 0.0151461754823 0.0327249234749) : omega : 	0.0479126133149 : d : 	(-0.634184797399 0.312745332096 0.707106781187)
	I88 : dAve : 	(-0.0284736755306 0.0190255017326 0.0327249234749) : omega : 	0.0479126133149 : d : 	(-0.58793780121 0.392847479194 0.707106781187)
	I89 : dAve : 	(-0.025746752993 0.0225792963734 0.0327249234749) : omega : 	0.0479126133149 : d : 	(-0.531631026234 0.466227897004 0.707106781187)
	I90 : dAve : 	(-0.0225792963734 0.025746752993 0.0327249234749) : omega : 	0.0479126133149 : d : 	(-0.466227897004 0.531631026234 0.707106781187)
	I91 : dAve : 	(-0.0190255017326 0.0284736755306 0.0327249234749) : omega : 	0.0479126133149 : d : 	(-0.392847479194 0.58793780121 0.707106781187)
	I92 : dAve : 	(-0.0151461754823 0.0307134055855 0.0327249234749) : omega : 	0.0479126133149 : d : 	(-0.312745332096 0.634184797399 0.707106781187)
	I93 : dAve : 	(-0.0110076939702 0.0324276207555 0.0327249234749) : omega : 	0.0479126133149 : d : 	(-0.227292025657 0.669580715876 0.707106781187)
	I94 : dAve : 	(-0.00668086776241 0.0335869903436 0.0327249234749) : omega : 	0.0479126133149 : d : 	(-0.137949689641 0.693519922661 0.707106781187)
	I95 : dAve : 	(-0.00223973005487 0.034171677215 0.0327249234749) : omega : 	0.0479126133149 : d : 	(-0.0462469961895 0.70559281129 0.707106781187)
	I96 : dAve : 	(0.00409197190067 0.0624314267954 0.0163624617374) : omega : 	0.0654498469498 : d : 	(0.0631745716435 0.963857704949 0.258819045103)
	I97 : dAve : 	(0.0122059009283 0.0613632077737 0.0163624617374) : omega : 	0.0654498469498 : d : 	(0.188442780494 0.947365832386 0.258819045103)
	I98 : dAve : 	(0.0201109836069 0.0592450472539 0.0163624617374) : omega : 	0.0654498469498 : d : 	(0.310486681125 0.914664267771 0.258819045103)
	I99 : dAve : 	(0.0276719617802 0.0561131875497 0.0163624617374) : omega : 	0.0654498469498 : d : 	(0.427218068558 0.866312543941 0.258819045103)
	I100 : dAve : 	(0.0347594650153 0.052021215649 0.0163624617374) : omega : 	0.0654498469498 : d : 	(0.536639636391 0.803137972298 0.258819045103)
	I101 : dAve : 	(0.0412522241668 0.0470391463256 0.0163624617374) : omega : 	0.0654498469498 : d : 	(0.636879151261 0.726221487276 0.258819045103)
	I102 : dAve : 	(0.0470391463256 0.0412522241668 0.0163624617374) : omega : 	0.0654498469498 : d : 	(0.726221487276 0.636879151261 0.258819045103)
	I103 : dAve : 	(0.052021215649 0.0347594650153 0.0163624617374) : omega : 	0.0654498469498 : d : 	(0.803137972298 0.536639636391 0.258819045103)
	I104 : dAve : 	(0.0561131875497 0.0276719617802 0.0163624617374) : omega : 	0.0654498469498 : d : 	(0.866312543941 0.427218068558 0.258819045103)
	I105 : dAve : 	(0.0592450472539 0.0201109836069 0.0163624617374) : omega : 	0.0654498469498 : d : 	(0.914664267771 0.310486681125 0.258819045103)
	I106 : dAve : 	(0.0613632077737 0.0122059009283 0.0163624617374) : omega : 	0.0654498469498 : d : 	(0.947365832386 0.188442780494 0.258819045103)
	I107 : dAve : 	(0.0624314267954 0.00409197190067 0.0163624617374) : omega : 	0.0654498469498 : d : 	(0.963857704949 0.0631745716435 0.258819045103)
	I108 : dAve : 	(0.0624314267954 -0.00409197190067 0.0163624617374) : omega : 	0.0654498469498 : d : 	(0.963857704949 -0.0631745716435 0.258819045103)
	I109 : dAve : 	(0.0613632077737 -0.0122059009283 0.0163624617374) : omega : 	0.0654498469498 : d : 	(0.947365832386 -0.188442780494 0.258819045103)
	I110 : dAve : 	(0.0592450472539 -0.0201109836069 0.0163624617374) : omega : 	0.0654498469498 : d : 	(0.914664267771 -0.310486681125 0.258819045103)
	I111 : dAve : 	(0.0561131875497 -0.0276719617802 0.0163624617374) : omega : 	0.0654498469498 : d : 	(0.866312543941 -0.427218068558 0.258819045103)
	I112 : dAve : 	(0.052021215649 -0.0347594650153 0.0163624617374) : omega : 	0.0654498469498 : d : 	(0.803137972298 -0.536639636391 0.258819045103)
	I113 : dAve : 	(0.0470391463256 -0.0412522241668 0.0163624617374) : omega : 	0.0654498469498 : d : 	(0.726221487276 -0.636879151261 0.258819045103)
	I114 : dAve : 	(0.0412522241668 -0.0470391463256 0.0163624617374) : omega : 	0.0654498469498 : d : 	(0.636879151261 -0.726221487276 0.258819045103)
	I115 : dAve : 	(0.0347594650153 -0.052021215649 0.0163624617374) : omega : 	0.0654498469498 : d : 	(0.536639636391 -0.803137972298 0.258819045103)
	I116 : dAve : 	(0.0276719617802 -0.0561131875497 0.0163624617374) : omega : 	0.0654498469498 : d : 	(0.427218068558 -0.866312543941 0.258819045103)
	I117 : dAve : 	(0.0201109836069 -0.0592450472539 0.0163624617374) : omega : 	0.0654498469498 : d : 	(0.310486681125 -0.914664267771 0.258819045103)
	I118 : dAve : 	(0.0122059009283 -0.0613632077737 0.0163624617374) : omega : 	0.0654498469498 : d : 	(0.188442780494 -0.947365832386 0.258819045103)
	I119 : dAve : 	(0.00409197190067 -0.0624314267954 0.0163624617374) : omega : 	0.0654498469498 : d : 	(0.0631745716435 -0.963857704949 0.258819045103)
	I120 : dAve : 	(-0.00409197190067 -0.0624314267954 0.0163624617374) : omega : 	0.0654498469498 : d : 	(-0.0631745716435 -0.963857704949 0.258819045103)
	I121 : dAve : 	(-0.0122059009283 -0.0613632077737 0.0163624617374) : omega : 	0.0654498469498 : d : 	(-0.188442780494 -0.947365832386 0.258819045103)
	I122 : dAve : 	(-0.0201109836069 -0.0592450472539 0.0163624617374) : omega : 	0.0654498469498 : d : 	(-0.310486681125 -0.914664267771 0.258819045103)
	I123 : dAve : 	(-0.0276719617802 -0.0561131875497 0.0163624617374) : omega : 	0.0654498469498 : d : 	(-0.427218068558 -0.866312543941 0.258819045103)
	I124 : dAve : 	(-0.0347594650153 -0.052021215649 0.0163624617374) : omega : 	0.0654498469498 : d : 	(-0.536639636391 -0.803137972298 0.258819045103)
	I125 : dAve : 	(-0.0412522241668 -0.0470391463256 0.0163624617374) : omega : 	0.0654498469498 : d : 	(-0.636879151261 -0.726221487276 0.258819045103)
	I126 : dAve : 	(-0.0470391463256 -0.0412522241668 0.0163624617374) : omega : 	0.0654498469498 : d : 	(-0.726221487276 -0.636879151261 0.258819045103)
	I127 : dAve : 	(-0.052021215649 -0.0347594650153 0.0163624617374) : omega : 	0.0654498469498 : d : 	(-0.803137972298 -0.536639636391 0.258819045103)
	I128 : dAve : 	(-0.0561131875497 -0.0276719617802 0.0163624617374) : omega : 	0.0654498469498 : d : 	(-0.866312543941 -0.427218068558 0.258819045103)
	I129 : dAve : 	(-0.0592450472539 -0.0201109836069 0.0163624617374) : omega : 	0.0654498469498 : d : 	(-0.914664267771 -0.310486681125 0.258819045103)
	I130 : dAve : 	(-0.0613632077737 -0.0122059009283 0.0163624617374) : omega : 	0.0654498469498 : d : 	(-0.947365832386 -0.188442780494 0.258819045103)
	I131 : dAve : 	(-0.0624314267954 -0.00409197190067 0.0163624617374) : omega : 	0.0654498469498 : d : 	(-0.963857704949 -0.0631745716435 0.258819045103)
	I132 : dAve : 	(-0.0624314267954 0.00409197190067 0.0163624617374) : omega : 	0.0654498469498 : d : 	(-0.963857704949 0.0631745716435 0.258819045103)
	I133 : dAve : 	(-0.0613632077737 0.0122059009283 0.0163624617374) : omega : 	0.0654498469498 : d : 	(-0.947365832386 0.188442780494 0.258819045103)
	I134 : dAve : 	(-0.0592450472539 0.0201109836069 0.0163624617374) : omega : 	0.0654498469498 : d : 	(-0.914664267771 0.310486681125 0.258819045103)
	I135 : dAve : 	(-0.0561131875497 0.0276719617802 0.0163624617374) : omega : 	0.0654498469498 : d : 	(-0.866312543941 0.427218068558 0.258819045103)
	I136 : dAve : 	(-0.052021215649 0.0347594650153 0.0163624617374) : omega : 	0.0654498469498 : d : 	(-0.803137972298 0.536639636391 0.258819045103)
	I137 : dAve : 	(-0.0470391463256 0.0412522241668 0.0163624617374) : omega : 	0.0654498469498 : d : 	(-0.726221487276 0.636879151261 0.258819045103)
	I138 : dAve : 	(-0.0412522241668 0.0470391463256 0.0163624617374) : omega : 	0.0654498469498 : d : 	(-0.636879151261 0.726221487276 0.258819045103)
	I139 : dAve : 	(-0.0347594650153 0.052021215649 0.0163624617374) : omega : 	0.0654498469498 : d : 	(-0.536639636391 0.803137972298 0.258819045103)
	I140 : dAve : 	(-0.0276719617802 0.0561131875497 0.0163624617374) : omega : 	0.0654498469498 : d : 	(-0.427218068558 0.866312543941 0.258819045103)
	I141 : dAve : 	(-0.0201109836069 0.0592450472539 0.0163624617374) : omega : 	0.0654498469498 : d : 	(-0.310486681125 0.914664267771 0.258819045103)
	I142 : dAve : 	(-0.0122059009283 0.0613632077737 0.0163624617374) : omega : 	0.0654498469498 : d : 	(-0.188442780494 0.947365832386 0.258819045103)
	I143 : dAve : 	(-0.00409197190067 0.0624314267954 0.0163624617374) : omega : 	0.0654498469498 : d : 	(-0.0631745716435 0.963857704949 0.258819045103)
	I144 : dAve : 	(0.00409197190067 0.0624314267954 -0.0163624617374) : omega : 	0.0654498469498 : d : 	(0.0631745716435 0.963857704949 -0.258819045103)
	I145 : dAve : 	(0.0122059009283 0.0613632077737 -0.0163624617374) : omega : 	0.0654498469498 : d : 	(0.188442780494 0.947365832386 -0.258819045103)
	I146 : dAve : 	(0.0201109836069 0.0592450472539 -0.0163624617374) : omega : 	0.0654498469498 : d : 	(0.310486681125 0.914664267771 -0.258819045103)
	I147 : dAve : 	(0.0276719617802 0.0561131875497 -0.0163624617374) : omega : 	0.0654498469498 : d : 	(0.427218068558 0.866312543941 -0.258819045103)
	I148 : dAve : 	(0.0347594650153 0.052021215649 -0.0163624617374) : omega : 	0.0654498469498 : d : 	(0.536639636391 0.803137972298 -0.258819045103)
	I149 : dAve : 	(0.0412522241668 0.0470391463256 -0.0163624617374) : omega : 	0.0654498469498 : d : 	(0.636879151261 0.726221487276 -0.258819045103)
	I150 : dAve : 	(0.0470391463256 0.0412522241668 -0.0163624617374) : omega : 	0.0654498469498 : d : 	(0.726221487276 0.636879151261 -0.258819045103)
	I151 : dAve : 	(0.052021215649 0.0347594650153 -0.0163624617374) : omega : 	0.0654498469498 : d : 	(0.803137972298 0.536639636391 -0.258819045103)
	I152 : dAve : 	(0.0561131875497 0.0276719617802 -0.0163624617374) : omega : 	0.0654498469498 : d : 	(0.866312543941 0.427218068558 -0.258819045103)
	I153 : dAve : 	(0.0592450472539 0.0201109836069 -0.0163624617374) : omega : 	0.0654498469498 : d : 	(0.914664267771 0.310486681125 -0.258819045103)
	I154 : dAve : 	(0.0613632077737 0.0122059009283 -0.0163624617374) : omega : 	0.0654498469498 : d : 	(0.947365832386 0.188442780494 -0.258819045103)
	I155 : dAve : 	(0.0624314267954 0.00409197190067 -0.0163624617374) : omega : 	0.0654498469498 : d : 	(0.963857704949 0.0631745716435 -0.258819045103)
	I156 : dAve : 	(0.0624314267954 -0.00409197190067 -0.0163624617374) : omega : 	0.0654498469498 : d : 	(0.963857704949 -0.0631745716435 -0.258819045103)
	I157 : dAve : 	(0.0613632077737 -0.0122059009283 -0.0163624617374) : omega : 	0.0654498469498 : d : 	(0.947365832386 -0.188442780494 -0.258819045103)
	I158 : dAve : 	(0.0592450472539 -0.0201109836069 -0.0163624617374) : omega : 	0.0654498469498 : d : 	(0.914664267771 -0.310486681125 -0.258819045103)
	I159 : dAve : 	(0.0561131875497 -0.0276719617802 -0.0163624617374) : omega : 	0.0654498469498 : d : 	(0.866312543941 -0.427218068558 -0.258819045103)
	I160 : dAve : 	(0.052021215649 -0.0347594650153 -0.0163624617374) : omega : 	0.0654498469498 : d : 	(0.803137972298 -0.536639636391 -0.258819045103)
	I161 : dAve : 	(0.0470391463256 -0.0412522241668 -0.0163624617374) : omega : 	0.0654498469498 : d : 	(0.726221487276 -0.636879151261 -0.258819045103)
	I162 : dAve : 	(0.0412522241668 -0.0470391463256 -0.0163624617374) : omega : 	0.0654498469498 : d : 	(0.636879151261 -0.726221487276 -0.258819045103)
	I163 : dAve : 	(0.0347594650153 -0.052021215649 -0.0163624617374) : omega : 	0.0654498469498 : d : 	(0.536639636391 -0.803137972298 -0.258819045103)
	I164 : dAve : 	(0.0276719617802 -0.0561131875497 -0.0163624617374) : omega : 	0.0654498469498 : d : 	(0.427218068558 -0.866312543941 -0.258819045103)
	I165 : dAve : 	(0.0201109836069 -0.0592450472539 -0.0163624617374) : omega : 	0.0654498469498 : d : 	(0.310486681125 -0.914664267771 -0.258819045103)
	I166 : dAve : 	(0.0122059009283 -0.0613632077737 -0.0163624617374) : omega : 	0.0654498469498 : d : 	(0.188442780494 -0.947365832386 -0.258819045103)
	I167 : dAve : 	(0.00409197190067 -0.0624314267954 -0.0163624617374) : omega : 	0.0654498469498 : d : 	(0.0631745716435 -0.963857704949 -0.258819045103)
	I168 : dAve : 	(-0.00409197190067 -0.0624314267954 -0.0163624617374) : omega : 	0.0654498469498 : d : 	(-0.0631745716435 -0.963857704949 -0.258819045103)
	I169 : dAve : 	(-0.0122059009283 -0.0613632077737 -0.0163624617374) : omega : 	0.0654498469498 : d : 	(-0.188442780494 -0.947365832386 -0.258819045103)
	I170 : dAve : 	(-0.0201109836069 -0.0592450472539 -0.0163624617374) : omega : 	0.0654498469498 : d : 	(-0.310486681125 -0.914664267771 -0.258819045103)
	I171 : dAve : 	(-0.0276719617802 -0.0561131875497 -0.0163624617374) : omega : 	0.0654498469498 : d : 	(-0.427218068558 -0.866312543941 -0.258819045103)
	I172 : dAve : 	(-0.0347594650153 -0.052021215649 -0.0163624617374) : omega : 	0.0654498469498 : d : 	(-0.536639636391 -0.803137972298 -0.258819045103)
	I173 : dAve : 	(-0.0412522241668 -0.0470391463256 -0.0163624617374) : omega : 	0.0654498469498 : d : 	(-0.636879151261 -0.726221487276 -0.258819045103)
	I174 : dAve : 	(-0.0470391463256 -0.0412522241668 -0.0163624617374) : omega : 	0.0654498469498 : d : 	(-0.726221487276 -0.636879151261 -0.258819045103)
	I175 : dAve : 	(-0.052021215649 -0.0347594650153 -0.0163624617374) : omega : 	0.0654498469498 : d : 	(-0.803137972298 -0.536639636391 -0.258819045103)
	I176 : dAve : 	(-0.0561131875497 -0.0276719617802 -0.0163624617374) : omega : 	0.0654498469498 : d : 	(-0.866312543941 -0.427218068558 -0.258819045103)
	I177 : dAve : 	(-0.0592450472539 -0.0201109836069 -0.0163624617374) : omega : 	0.0654498469498 : d : 	(-0.914664267771 -0.310486681125 -0.258819045103)
	I178 : dAve : 	(-0.0613632077737 -0.0122059009283 -0.0163624617374) : omega : 	0.0654498469498 : d : 	(-0.947365832386 -0.188442780494 -0.258819045103)
	I179 : dAve : 	(-0.0624314267954 -0.00409197190067 -0.0163624617374) : omega : 	0.0654498469498 : d : 	(-0.963857704949 -0.0631745716435 -0.258819045103)
	I180 : dAve : 	(-0.0624314267954 0.00409197190067 -0.0163624617374) : omega : 	0.0654498469498 : d : 	(-0.963857704949 0.0631745716435 -0.258819045103)
	I181 : dAve : 	(-0.0613632077737 0.0122059009283 -0.0163624617374) : omega : 	0.0654498469498 : d : 	(-0.947365832386 0.188442780494 -0.258819045103)
	I182 : dAve : 	(-0.0592450472539 0.0201109836069 -0.0163624617374) : omega : 	0.0654498469498 : d : 	(-0.914664267771 0.310486681125 -0.258819045103)
	I183 : dAve : 	(-0.0561131875497 0.0276719617802 -0.0163624617374) : omega : 	0.0654498469498 : d : 	(-0.866312543941 0.427218068558 -0.258819045103)
	I184 : dAve : 	(-0.052021215649 0.0347594650153 -0.0163624617374) : omega : 	0.0654498469498 : d : 	(-0.803137972298 0.536639636391 -0.258819045103)
	I185 : dAve : 	(-0.0470391463256 0.0412522241668 -0.0163624617374) : omega : 	0.0654498469498 : d : 	(-0.726221487276 0.636879151261 -0.258819045103)
	I186 : dAve : 	(-0.0412522241668 0.0470391463256 -0.0163624617374) : omega : 	0.0654498469498 : d : 	(-0.636879151261 0.726221487276 -0.258819045103)
	I187 : dAve : 	(-0.0347594650153 0.052021215649 -0.0163624617374) : omega : 	0.0654498469498 : d : 	(-0.536639636391 0.803137972298 -0.258819045103)
	I188 : dAve : 	(-0.0276719617802 0.0561131875497 -0.0163624617374) : omega : 	0.0654498469498 : d : 	(-0.427218068558 0.866312543941 -0.258819045103)
	I189 : dAve : 	(-0.0201109836069 0.0592450472539 -0.0163624617374) : omega : 	0.0654498469498 : d : 	(-0.310486681125 0.914664267771 -0.258819045103)
	I190 : dAve : 	(-0.0122059009283 0.0613632077737 -0.0163624617374) : omega : 	0.0654498469498 : d : 	(-0.188442780494 0.947365832386 -0.258819045103)
	I191 : dAve : 	(-0.00409197190067 0.0624314267954 -0.0163624617374) : omega : 	0.0654498469498 : d : 	(-0.0631745716435 0.963857704949 -0.258819045103)
	I192 : dAve : 	(0.00223973005487 0.034171677215 -0.0327249234749) : omega : 	0.0479126133149 : d : 	(0.0462469961895 0.70559281129 -0.707106781187)
	I193 : dAve : 	(0.00668086776241 0.0335869903436 -0.0327249234749) : omega : 	0.0479126133149 : d : 	(0.137949689641 0.693519922661 -0.707106781187)
	I194 : dAve : 	(0.0110076939702 0.0324276207555 -0.0327249234749) : omega : 	0.0479126133149 : d : 	(0.227292025657 0.669580715876 -0.707106781187)
	I195 : dAve : 	(0.0151461754823 0.0307134055855 -0.0327249234749) : omega : 	0.0479126133149 : d : 	(0.312745332096 0.634184797399 -0.707106781187)
	I196 : dAve : 	(0.0190255017326 0.0284736755306 -0.0327249234749) : omega : 	0.0479126133149 : d : 	(0.392847479194 0.58793780121 -0.707106781187)
	I197 : dAve : 	(0.0225792963734 0.025746752993 -0.0327249234749) : omega : 	0.0479126133149 : d : 	(0.466227897004 0.531631026234 -0.707106781187)
	I198 : dAve : 	(0.025746752993 0.0225792963734 -0.0327249234749) : omega : 	0.0479126133149 : d : 	(0.531631026234 0.466227897004 -0.707106781187)
	I199 : dAve : 	(0.0284736755306 0.0190255017326 -0.0327249234749) : omega : 	0.0479126133149 : d : 	(0.58793780121 0.392847479194 -0.707106781187)
	I200 : dAve : 	(0.0307134055855 0.0151461754823 -0.0327249234749) : omega : 	0.0479126133149 : d : 	(0.634184797399 0.312745332096 -0.707106781187)
	I201 : dAve : 	(0.0324276207555 0.0110076939702 -0.0327249234749) : omega : 	0.0479126133149 : d : 	(0.669580715876 0.227292025657 -0.707106781187)
	I202 : dAve : 	(0.0335869903436 0.00668086776241 -0.0327249234749) : omega : 	0.0479126133149 : d : 	(0.693519922661 0.137949689641 -0.707106781187)
	I203 : dAve : 	(0.034171677215 0.00223973005487 -0.0327249234749) : omega : 	0.0479126133149 : d : 	(0.70559281129 0.0462469961895 -0.707106781187)
	I204 : dAve : 	(0.034171677215 -0.00223973005487 -0.0327249234749) : omega : 	0.0479126133149 : d : 	(0.70559281129 -0.0462469961895 -0.707106781187)
	I205 : dAve : 	(0.0335869903436 -0.00668086776241 -0.0327249234749) : omega : 	0.0479126133149 : d : 	(0.693519922661 -0.137949689641 -0.707106781187)
	I206 : dAve : 	(0.0324276207555 -0.0110076939702 -0.0327249234749) : omega : 	0.0479126133149 : d : 	(0.669580715876 -0.227292025657 -0.707106781187)
	I207 : dAve : 	(0.0307134055855 -0.0151461754823 -0.0327249234749) : omega : 	0.0479126133149 : d : 	(0.634184797399 -0.312745332096 -0.707106781187)
	I208 : dAve : 	(0.0284736755306 -0.0190255017326 -0.0327249234749) : omega : 	0.0479126133149 : d : 	(0.58793780121 -0.392847479194 -0.707106781187)
	I209 : dAve : 	(0.025746752993 -0.0225792963734 -0.0327249234749) : omega : 	0.0479126133149 : d : 	(0.531631026234 -0.466227897004 -0.707106781187)
	I210 : dAve : 	(0.0225792963734 -0.025746752993 -0.0327249234749) : omega : 	0.0479126133149 : d : 	(0.466227897004 -0.531631026234 -0.707106781187)
	I211 : dAve : 	(0.0190255017326 -0.0284736755306 -0.0327249234749) : omega : 	0.0479126133149 : d : 	(0.392847479194 -0.58793780121 -0.707106781187)
	I212 : dAve : 	(0.0151461754823 -0.0307134055855 -0.0327249234749) : omega : 	0.0479126133149 : d : 	(0.312745332096 -0.634184797399 -0.707106781187)
	I213 : dAve : 	(0.0110076939702 -0.0324276207555 -0.0327249234749) : omega : 	0.0479126133149 : d : 	(0.227292025657 -0.669580715876 -0.707106781187)
	I214 : dAve : 	(0.00668086776241 -0.0335869903436 -0.0327249234749) : omega : 	0.0479126133149 : d : 	(0.137949689641 -0.693519922661 -0.707106781187)
	I215 : dAve : 	(0.00223973005487 -0.034171677215 -0.0327249234749) : omega : 	0.0479126133149 : d : 	(0.0462469961895 -0.70559281129 -0.707106781187)
	I216 : dAve : 	(-0.00223973005487 -0.034171677215 -0.0327249234749) : omega : 	0.0479126133149 : d : 	(-0.0462469961895 -0.70559281129 -0.707106781187)
	I217 : dAve : 	(-0.00668086776241 -0.0335869903436 -0.0327249234749) : omega : 	0.0479126133149 : d : 	(-0.137949689641 -0.693519922661 -0.707106781187)
	I218 : dAve : 	(-0.0110076939702 -0.0324276207555 -0.0327249234749) : omega : 	0.0479126133149 : d : 	(-0.227292025657 -0.669580715876 -0.707106781187)
	I219 : dAve : 	(-0.0151461754823 -0.0307134055855 -0.0327249234749) : omega : 	0.0479126133149 : d : 	(-0.312745332096 -0.634184797399 -0.707106781187)
	I220 : dAve : 	(-0.0190255017326 -0.0284736755306 -0.0327249234749) : omega : 	0.0479126133149 : d : 	(-0.392847479194 -0.58793780121 -0.707106781187)
	I221 : dAve : 	(-0.0225792963734 -0.025746752993 -0.0327249234749) : omega : 	0.0479126133149 : d : 	(-0.466227897004 -0.531631026234 -0.707106781187)
	I222 : dAve : 	(-0.025746752993 -0.0225792963734 -0.0327249234749) : omega : 	0.0479126133149 : d : 	(-0.531631026234 -0.466227897004 -0.707106781187)
	I223 : dAve : 	(-0.0284736755306 -0.0190255017326 -0.0327249234749) : omega : 	0.0479126133149 : d : 	(-0.58793780121 -0.392847479194 -0.707106781187)
	I224 : dAve : 	(-0.0307134055855 -0.0151461754823 -0.0327249234749) : omega : 	0.0479126133149 : d : 	(-0.634184797399 -0.312745332096 -0.707106781187)
	I225 : dAve : 	(-0.0324276207555 -0.0110076939702 -0.0327249234749) : omega : 	0.0479126133149 : d : 	(-0.669580715876 -0.227292025657 -0.707106781187)
	I226 : dAve : 	(-0.0335869903436 -0.00668086776241 -0.0327249234749) : omega : 	0.0479126133149 : d : 	(-0.693519922661 -0.137949689641 -0.707106781187)
	I227 : dAve : 	(-0.034171677215 -0.00223973005487 -0.0327249234749) : omega : 	0.0479126133149 : d : 	(-0.70559281129 -0.0462469961895 -0.707106781187)
	I228 : dAve : 	(-0.034171677215 0.00223973005487 -0.0327249234749) : omega : 	0.0479126133149 : d : 	(-0.70559281129 0.0462469961895 -0.707106781187)
	I229 : dAve : 	(-0.0335869903436 0.00668086776241 -0.0327249234749) : omega : 	0.0479126133149 : d : 	(-0.693519922661 0.137949689641 -0.707106781187)
	I230 : dAve : 	(-0.0324276207555 0.0110076939702 -0.0327249234749) : omega : 	0.0479126133149 : d : 	(-0.669580715876 0.227292025657 -0.707106781187)
	I231 : dAve : 	(-0.0307134055855 0.0151461754823 -0.0327249234749) : omega : 	0.0479126133149 : d : 	(-0.634184797399 0.312745332096 -0.707106781187)
	I232 : dAve : 	(-0.0284736755306 0.0190255017326 -0.0327249234749) : omega : 	0.0479126133149 : d : 	(-0.58793780121 0.392847479194 -0.707106781187)
	I233 : dAve : 	(-0.025746752993 0.0225792963734 -0.0327249234749) : omega : 	0.0479126133149 : d : 	(-0.531631026234 0.466227897004 -0.707106781187)
	I234 : dAve : 	(-0.0225792963734 0.025746752993 -0.0327249234749) : omega : 	0.0479126133149 : d : 	(-0.466227897004 0.531631026234 -0.707106781187)
	I235 : dAve : 	(-0.0190255017326 0.0284736755306 -0.0327249234749) : omega : 	0.0479126133149 : d : 	(-0.392847479194 0.58793780121 -0.707106781187)
	I236 : dAve : 	(-0.0151461754823 0.0307134055855 -0.0327249234749) : omega : 	0.0479126133149 : d : 	(-0.312745332096 0.634184797399 -0.707106781187)
	I237 : dAve : 	(-0.0110076939702 0.0324276207555 -0.0327249234749) : omega : 	0.0479126133149 : d : 	(-0.227292025657 0.669580715876 -0.707106781187)
	I238 : dAve : 	(-0.00668086776241 0.0335869903436 -0.0327249234749) : omega : 	0.0479126133149 : d : 	(-0.137949689641 0.693519922661 -0.707106781187)
	I239 : dAve : 	(-0.00223973005487 0.034171677215 -0.0327249234749) : omega : 	0.0479126133149 : d : 	(-0.0462469961895 0.70559281129 -0.707106781187)
	I240 : dAve : 	(0.000387488209079 0.00591192763451 -0.0163624617374) : omega : 	0.0175372336349 : d : 	(0.0169275754541 0.25826489366 -0.965925826289)
	I241 : dAve : 	(0.00115583459655 0.00581077291359 -0.0163624617374) : omega : 	0.0175372336349 : d : 	(0.050493090853 0.253845909725 -0.965925826289)
	I242 : dAve : 	(0.00190440433361 0.00561019425706 -0.0163624617374) : omega : 	0.0175372336349 : d : 	(0.083194655468 0.245083551895 -0.965925826289)
	I243 : dAve : 	(0.00262038918453 0.00531362362136 -0.0163624617374) : omega : 	0.0175372336349 : d : 	(0.114472736462 0.232127746542 -0.965925826289)
	I244 : dAve : 	(0.00329153844998 0.00492613541228 -0.0163624617374) : omega : 	0.0175372336349 : d : 	(0.143792157198 0.215200171088 -0.965925826289)
	I245 : dAve : 	(0.00390636857998 0.00445435966052 -0.0163624617374) : omega : 	0.0175372336349 : d : 	(0.170651254257 0.194590461042 -0.965925826289)
	I246 : dAve : 	(0.00445435966052 0.00390636857998 -0.0163624617374) : omega : 	0.0175372336349 : d : 	(0.194590461042 0.170651254257 -0.965925826289)
	I247 : dAve : 	(0.00492613541228 0.00329153844998 -0.0163624617374) : omega : 	0.0175372336349 : d : 	(0.215200171088 0.143792157198 -0.965925826289)
	I248 : dAve : 	(0.00531362362136 0.00262038918453 -0.0163624617374) : omega : 	0.0175372336349 : d : 	(0.232127746542 0.114472736462 -0.965925826289)
	I249 : dAve : 	(0.00561019425706 0.00190440433361 -0.0163624617374) : omega : 	0.0175372336349 : d : 	(0.245083551895 0.083194655468 -0.965925826289)
	I250 : dAve : 	(0.00581077291359 0.00115583459655 -0.0163624617374) : omega : 	0.0175372336349 : d : 	(0.253845909725 0.050493090853 -0.965925826289)
	I251 : dAve : 	(0.00591192763451 0.000387488209079 -0.0163624617374) : omega : 	0.0175372336349 : d : 	(0.25826489366 0.0169275754541 -0.965925826289)
	I252 : dAve : 	(0.00591192763451 -0.000387488209079 -0.0163624617374) : omega : 	0.0175372336349 : d : 	(0.25826489366 -0.0169275754541 -0.965925826289)
	I253 : dAve : 	(0.00581077291359 -0.00115583459655 -0.0163624617374) : omega : 	0.0175372336349 : d : 	(0.253845909725 -0.050493090853 -0.965925826289)
	I254 : dAve : 	(0.00561019425706 -0.00190440433361 -0.0163624617374) : omega : 	0.0175372336349 : d : 	(0.245083551895 -0.083194655468 -0.965925826289)
	I255 : dAve : 	(0.00531362362136 -0.00262038918453 -0.0163624617374) : omega : 	0.0175372336349 : d : 	(0.232127746542 -0.114472736462 -0.965925826289)
	I256 : dAve : 	(0.00492613541228 -0.00329153844998 -0.0163624617374) : omega : 	0.0175372336349 : d : 	(0.215200171088 -0.143792157198 -0.965925826289)
	I257 : dAve : 	(0.00445435966052 -0.00390636857998 -0.0163624617374) : omega : 	0.0175372336349 : d : 	(0.194590461042 -0.170651254257 -0.965925826289)
	I258 : dAve : 	(0.00390636857998 -0.00445435966052 -0.0163624617374) : omega : 	0.0175372336349 : d : 	(0.170651254257 -0.194590461042 -0.965925826289)
	I259 : dAve : 	(0.00329153844998 -0.00492613541228 -0.0163624617374) : omega : 	0.0175372336349 : d : 	(0.143792157198 -0.215200171088 -0.965925826289)
	I260 : dAve : 	(0.00262038918453 -0.00531362362136 -0.0163624617374) : omega : 	0.0175372336349 : d : 	(0.114472736462 -0.232127746542 -0.965925826289)
	I261 : dAve : 	(0.00190440433361 -0.00561019425706 -0.0163624617374) : omega : 	0.0175372336349 : d : 	(0.083194655468 -0.245083551895 -0.965925826289)
	I262 : dAve : 	(0.00115583459655 -0.00581077291359 -0.0163624617374) : omega : 	0.0175372336349 : d : 	(0.050493090853 -0.253845909725 -0.965925826289)
	I263 : dAve : 	(0.000387488209079 -0.00591192763451 -0.0163624617374) : omega : 	0.0175372336349 : d : 	(0.0169275754541 -0.25826489366 -0.965925826289)
	I264 : dAve : 	(-0.000387488209079 -0.00591192763451 -0.0163624617374) : omega : 	0.0175372336349 : d : 	(-0.0169275754541 -0.25826489366 -0.965925826289)
	I265 : dAve : 	(-0.00115583459655 -0.00581077291359 -0.0163624617374) : omega : 	0.0175372336349 : d : 	(-0.050493090853 -0.253845909725 -0.965925826289)
	I266 : dAve : 	(-0.00190440433361 -0.00561019425706 -0.0163624617374) : omega : 	0.0175372336349 : d : 	(-0.083194655468 -0.245083551895 -0.965925826289)
	I267 : dAve : 	(-0.00262038918453 -0.00531362362136 -0.0163624617374) : omega : 	0.0175372336349 : d : 	(-0.114472736462 -0.232127746542 -0.965925826289)
	I268 : dAve : 	(-0.00329153844998 -0.00492613541228 -0.0163624617374) : omega : 	0.0175372336349 : d : 	(-0.143792157198 -0.215200171088 -0.965925826289)
	I269 : dAve : 	(-0.00390636857998 -0.00445435966052 -0.0163624617374) : omega : 	0.0175372336349 : d : 	(-0.170651254257 -0.194590461042 -0.965925826289)
	I270 : dAve : 	(-0.00445435966052 -0.00390636857998 -0.0163624617374) : omega : 	0.0175372336349 : d : 	(-0.194590461042 -0.170651254257 -0.965925826289)
	I271 : dAve : 	(-0.00492613541228 -0.00329153844998 -0.0163624617374) : omega : 	0.0175372336349 : d : 	(-0.215200171088 -0.143792157198 -0.965925826289)
	I272 : dAve : 	(-0.00531362362136 -0.00262038918453 -0.0163624617374) : omega : 	0.0175372336349 : d : 	(-0.232127746542 -0.114472736462 -0.965925826289)
	I273 : dAve : 	(-0.00561019425706 -0.00190440433361 -0.0163624617374) : omega : 	0.0175372336349 : d : 	(-0.245083551895 -0.083194655468 -0.965925826289)
	I274 : dAve : 	(-0.00581077291359 -0.00115583459655 -0.0163624617374) : omega : 	0.0175372336349 : d : 	(-0.253845909725 -0.050493090853 -0.965925826289)
	I275 : dAve : 	(-0.00591192763451 -0.000387488209079 -0.0163624617374) : omega : 	0.0175372336349 : d : 	(-0.25826489366 -0.0169275754541 -0.965925826289)
	I276 : dAve : 	(-0.00591192763451 0.000387488209079 -0.0163624617374) : omega : 	0.0175372336349 : d : 	(-0.25826489366 0.0169275754541 -0.965925826289)
	I277 : dAve : 	(-0.00581077291359 0.00115583459655 -0.0163624617374) : omega : 	0.0175372336349 : d : 	(-0.253845909725 0.050493090853 -0.965925826289)
	I278 : dAve : 	(-0.00561019425706 0.00190440433361 -0.0163624617374) : omega : 	0.0175372336349 : d : 	(-0.245083551895 0.083194655468 -0.965925826289)
	I279 : dAve : 	(-0.00531362362136 0.00262038918453 -0.0163624617374) : omega : 	0.0175372336349 : d : 	(-0.232127746542 0.114472736462 -0.965925826289)
	I280 : dAve : 	(-0.00492613541228 0.00329153844998 -0.0163624617374) : omega : 	0.0175372336349 : d : 	(-0.215200171088 0.143792157198 -0.965925826289)
	I281 : dAve : 	(-0.00445435966052 0.00390636857998 -0.0163624617374) : omega : 	0.0175372336349 : d : 	(-0.194590461042 0.170651254257 -0.965925826289)
	I282 : dAve : 	(-0.00390636857998 0.00445435966052 -0.0163624617374) : omega : 	0.0175372336349 : d : 	(-0.170651254257 0.194590461042 -0.965925826289)
	I283 : dAve : 	(-0.00329153844998 0.00492613541228 -0.0163624617374) : omega : 	0.0175372336349 : d : 	(-0.143792157198 0.215200171088 -0.965925826289)
	I284 : dAve : 	(-0.00262038918453 0.00531362362136 -0.0163624617374) : omega : 	0.0175372336349 : d : 	(-0.114472736462 0.232127746542 -0.965925826289)
	I285 : dAve : 	(-0.00190440433361 0.00561019425706 -0.0163624617374) : omega : 	0.0175372336349 : d : 	(-0.083194655468 0.245083551895 -0.965925826289)
	I286 : dAve : 	(-0.00115583459655 0.00581077291359 -0.0163624617374) : omega : 	0.0175372336349 : d : 	(-0.050493090853 0.253845909725 -0.965925826289)
	I287 : dAve : 	(-0.000387488209079 0.00591192763451 -0.0163624617374) : omega : 	0.0175372336349 : d : 	(-0.0169275754541 0.25826489366 -0.965925826289)
Total omega : 12.5663706144

Courant Number mean: 0 max: 0

Starting time loop

Sampled set:
    data -> csv

Sampled set:
    data -> csv

Sampled surface:
    yNormal -> ensight
        sampledCuttingPlane: yNormal : plane:(0 1 0) (0 0 0) offsets:(0)

Sampled surface:
    zNormal -> ensight
        sampledCuttingPlane: zNormal : plane:(0 0 1) (0 0 0) offsets:(0)

Sampled surface:
    patchAll -> ensight
        sampledPatch: patchAll : patches:(".*WW.*")

deltaT = 1
Time = 1

PIMPLE: iteration 1
Radiation solver iter: 0
DILUPBiCGStab:  Solving for ILambda_0_0, Initial residual = 1, Final residual = 9.42007104165e-65, No Iterations 3
DILUPBiCGStab:  Solving for ILambda_1_0, Initial residual = 1, Final residual = 2.0713150318e-74, No Iterations 3
DILUPBiCGStab:  Solving for ILambda_2_0, Initial residual = 1, Final residual = 2.17197579797e-73, No Iterations 3
DILUPBiCGStab:  Solving for ILambda_3_0, Initial residual = 1, Final residual = 3.26117478726e-75, No Iterations 3
DILUPBiCGStab:  Solving for ILambda_4_0, Initial residual = 1, Final residual = 1.31880123855e-73, No Iterations 3
DILUPBiCGStab:  Solving for ILambda_5_0, Initial residual = 1, Final residual = 4.21611673754e-61, No Iterations 3
DILUPBiCGStab:  Solving for ILambda_6_0, Initial residual = 1, Final residual = 5.29691592611e-74, No Iterations 3
DILUPBiCGStab:  Solving for ILambda_7_0, Initial residual = 1, Final residual = 6.49195218336e-73, No Iterations 3
DILUPBiCGStab:  Solving for ILambda_8_0, Initial residual = 1, Final residual = 3.10246116633e-75, No Iterations 3
DILUPBiCGStab:  Solving for ILambda_9_0, Initial residual = 1, Final residual = 2.78322036553e-61, No Iterations 3
DILUPBiCGStab:  Solving for ILambda_10_0, Initial residual = 1, Final residual = 2.87888246602e-64, No Iterations 3
DILUPBiCGStab:  Solving for ILambda_11_0, Initial residual = 1, Final residual = 9.10053097462e-67, No Iterations 3
DILUPBiCGStab:  Solving for ILambda_12_0, Initial residual = 1, Final residual = 7.55202739836e-63, No Iterations 36
DILUPBiCGStab:  Solving for ILambda_13_0, Initial residual = 1, Final residual = 3.95188376866e-61, No Iterations 51
DILUPBiCGStab:  Solving for ILambda_14_0, Initial residual = 1, Final residual = 1.08159704441e-61, No Iterations 61
DILUPBiCGStab:  Solving for ILambda_15_0, Initial residual = 1, Final residual = 3.31582847124e-61, No Iterations 67
DILUPBiCGStab:  Solving for ILambda_16_0, Initial residual = 1, Final residual = 1.9661598726e-61, No Iterations 71
DILUPBiCGStab:  Solving for ILambda_17_0, Initial residual = 1, Final residual = 4.14708430487e-61, No Iterations 69
DILUPBiCGStab:  Solving for ILambda_18_0, Initial residual = 1, Final residual = 7.08646057533e-61, No Iterations 71
DILUPBiCGStab:  Solving for ILambda_19_0, Initial residual = 1, Final residual = 2.91569281564e-61, No Iterations 71
DILUPBiCGStab:  Solving for ILambda_20_0, Initial residual = 1, Final residual = 2.19586881991e-61, No Iterations 67
DILUPBiCGStab:  Solving for ILambda_21_0, Initial residual = 1, Final residual = 4.38734743748e-62, No Iterations 62
DILUPBiCGStab:  Solving for ILambda_22_0, Initial residual = 1, Final residual = 1.21811359566e-61, No Iterations 50
DILUPBiCGStab:  Solving for ILambda_23_0, Initial residual = 1, Final residual = 2.44591055722e-61, No Iterations 35
DILUPBiCGStab:  Solving for ILambda_24_0, Initial residual = 1, Final residual = 1.22309021136e-61, No Iterations 20
DILUPBiCGStab:  Solving for ILambda_25_0, Initial residual = 1, Final residual = 2.43104331513e-61, No Iterations 20
DILUPBiCGStab:  Solving for ILambda_26_0, Initial residual = 1, Final residual = 2.83056664378e-63, No Iterations 20
DILUPBiCGStab:  Solving for ILambda_27_0, Initial residual = 1, Final residual = 2.41771044798e-61, No Iterations 22
DILUPBiCGStab:  Solving for ILambda_28_0, Initial residual = 1, Final residual = 1.71096870828e-61, No Iterations 22
DILUPBiCGStab:  Solving for ILambda_29_0, Initial residual = 1, Final residual = 1.11427084776e-61, No Iterations 21
DILUPBiCGStab:  Solving for ILambda_30_0, Initial residual = 1, Final residual = 1.76142507525e-63, No Iterations 21
DILUPBiCGStab:  Solving for ILambda_31_0, Initial residual = 1, Final residual = 2.81422480222e-61, No Iterations 21
DILUPBiCGStab:  Solving for ILambda_32_0, Initial residual = 1, Final residual = 4.32292632096e-62, No Iterations 21
DILUPBiCGStab:  Solving for ILambda_33_0, Initial residual = 1, Final residual = 7.3855881335e-62, No Iterations 21
DILUPBiCGStab:  Solving for ILambda_34_0, Initial residual = 1, Final residual = 3.01015115346e-62, No Iterations 19
DILUPBiCGStab:  Solving for ILambda_35_0, Initial residual = 1, Final residual = 1.3608419293e-62, No Iterations 19
DILUPBiCGStab:  Solving for ILambda_36_0, Initial residual = 1, Final residual = 1.95554705153e-61, No Iterations 35
DILUPBiCGStab:  Solving for ILambda_37_0, Initial residual = 1, Final residual = 1.4553050511e-61, No Iterations 50
DILUPBiCGStab:  Solving for ILambda_38_0, Initial residual = 1, Final residual = 4.20660798362e-61, No Iterations 62
DILUPBiCGStab:  Solving for ILambda_39_0, Initial residual = 1, Final residual = 2.33870313088e-62, No Iterations 67
DILUPBiCGStab:  Solving for ILambda_40_0, Initial residual = 1, Final residual = 6.52772751546e-61, No Iterations 71
DILUPBiCGStab:  Solving for ILambda_41_0, Initial residual = 1, Final residual = 5.65115897744e-61, No Iterations 69
DILUPBiCGStab:  Solving for ILambda_42_0, Initial residual = 1, Final residual = 4.07500675784e-61, No Iterations 69
DILUPBiCGStab:  Solving for ILambda_43_0, Initial residual = 1, Final residual = 5.87968468868e-61, No Iterations 70
DILUPBiCGStab:  Solving for ILambda_44_0, Initial residual = 1, Final residual = 1.85958601204e-61, No Iterations 66
DILUPBiCGStab:  Solving for ILambda_45_0, Initial residual = 1, Final residual = 4.60614274271e-61, No Iterations 60
DILUPBiCGStab:  Solving for ILambda_46_0, Initial residual = 1, Final residual = 9.09760024173e-61, No Iterations 51
DILUPBiCGStab:  Solving for ILambda_47_0, Initial residual = 1, Final residual = 2.44478614777e-61, No Iterations 35
DILUPBiCGStab:  Solving for ILambda_48_0, Initial residual = 1, Final residual = 3.03386320555e-74, No Iterations 3
DILUPBiCGStab:  Solving for ILambda_49_0, Initial residual = 1, Final residual = 1.83694132785e-73, No Iterations 3
DILUPBiCGStab:  Solving for ILambda_50_0, Initial residual = 1, Final residual = 7.44367953374e-72, No Iterations 3
DILUPBiCGStab:  Solving for ILambda_51_0, Initial residual = 1, Final residual = 1.37681054204e-72, No Iterations 3
DILUPBiCGStab:  Solving for ILambda_52_0, Initial residual = 1, Final residual = 3.33709348354e-71, No Iterations 3
DILUPBiCGStab:  Solving for ILambda_53_0, Initial residual = 1, Final residual = 5.84803983457e-72, No Iterations 3
DILUPBiCGStab:  Solving for ILambda_54_0, Initial residual = 1, Final residual = 2.72642208873e-72, No Iterations 3
DILUPBiCGStab:  Solving for ILambda_55_0, Initial residual = 1, Final residual = 2.60942244404e-71, No Iterations 3
DILUPBiCGStab:  Solving for ILambda_56_0, Initial residual = 1, Final residual = 3.46440171269e-73, No Iterations 3
DILUPBiCGStab:  Solving for ILambda_57_0, Initial residual = 1, Final residual = 3.44196611488e-73, No Iterations 3
DILUPBiCGStab:  Solving for ILambda_58_0, Initial residual = 1, Final residual = 6.52594479902e-73, No Iterations 3
DILUPBiCGStab:  Solving for ILambda_59_0, Initial residual = 1, Final residual = 6.15277792055e-73, No Iterations 3
DILUPBiCGStab:  Solving for ILambda_60_0, Initial residual = 1, Final residual = 4.98699169967e-61, No Iterations 36
DILUPBiCGStab:  Solving for ILambda_61_0, Initial residual = 1, Final residual = 4.89612157342e-61, No Iterations 51
DILUPBiCGStab:  Solving for ILambda_62_0, Initial residual = 1, Final residual = 4.26913718568e-61, No Iterations 62
DILUPBiCGStab:  Solving for ILambda_63_0, Initial residual = 1, Final residual = 1.90861228403e-61, No Iterations 66
DILUPBiCGStab:  Solving for ILambda_64_0, Initial residual = 1, Final residual = 7.96328778838e-62, No Iterations 72
DILUPBiCGStab:  Solving for ILambda_65_0, Initial residual = 1, Final residual = 1.17008299014e-61, No Iterations 71
DILUPBiCGStab:  Solving for ILambda_66_0, Initial residual = 1, Final residual = 2.069117125e-61, No Iterations 72
DILUPBiCGStab:  Solving for ILambda_67_0, Initial residual = 1, Final residual = 3.77563248008e-61, No Iterations 71
DILUPBiCGStab:  Solving for ILambda_68_0, Initial residual = 1, Final residual = 5.71994555691e-61, No Iterations 67
DILUPBiCGStab:  Solving for ILambda_69_0, Initial residual = 1, Final residual = 9.5191558865e-61, No Iterations 60
DILUPBiCGStab:  Solving for ILambda_70_0, Initial residual = 1, Final residual = 1.19609734022e-61, No Iterations 50
DILUPBiCGStab:  Solving for ILambda_71_0, Initial residual = 1, Final residual = 3.98344258402e-61, No Iterations 34
DILUPBiCGStab:  Solving for ILambda_72_0, Initial residual = 1, Final residual = 9.61974858273e-62, No Iterations 25
DILUPBiCGStab:  Solving for ILambda_73_0, Initial residual = 1, Final residual = 2.25276157249e-62, No Iterations 26
DILUPBiCGStab:  Solving for ILambda_74_0, Initial residual = 1, Final residual = 2.53669513412e-61, No Iterations 24
DILUPBiCGStab:  Solving for ILambda_75_0, Initial residual = 1, Final residual = 8.29485357187e-62, No Iterations 23
DILUPBiCGStab:  Solving for ILambda_76_0, Initial residual = 1, Final residual = 1.70903481436e-62, No Iterations 25
DILUPBiCGStab:  Solving for ILambda_77_0, Initial residual = 1, Final residual = 2.55537991742e-61, No Iterations 27
DILUPBiCGStab:  Solving for ILambda_78_0, Initial residual = 1, Final residual = 1.00664397181e-61, No Iterations 24
DILUPBiCGStab:  Solving for ILambda_79_0, Initial residual = 1, Final residual = 7.46061057403e-61, No Iterations 25
DILUPBiCGStab:  Solving for ILambda_80_0, Initial residual = 1, Final residual = 2.67325506956e-61, No Iterations 26
DILUPBiCGStab:  Solving for ILambda_81_0, Initial residual = 1, Final residual = 7.09659948112e-64, No Iterations 24
DILUPBiCGStab:  Solving for ILambda_82_0, Initial residual = 1, Final residual = 1.3347444607e-62, No Iterations 22
DILUPBiCGStab:  Solving for ILambda_83_0, Initial residual = 1, Final residual = 2.1337169027e-61, No Iterations 25
DILUPBiCGStab:  Solving for ILambda_84_0, Initial residual = 1, Final residual = 3.12236754179e-61, No Iterations 35
DILUPBiCGStab:  Solving for ILambda_85_0, Initial residual = 1, Final residual = 3.04185113852e-61, No Iterations 50
DILUPBiCGStab:  Solving for ILambda_86_0, Initial residual = 1, Final residual = 1.41230049401e-61, No Iterations 60
DILUPBiCGStab:  Solving for ILambda_87_0, Initial residual = 1, Final residual = 2.0215499223e-61, No Iterations 68
DILUPBiCGStab:  Solving for ILambda_88_0, Initial residual = 1, Final residual = 3.4957202963e-61, No Iterations 72
DILUPBiCGStab:  Solving for ILambda_89_0, Initial residual = 1, Final residual = 3.0290768073e-61, No Iterations 71
DILUPBiCGStab:  Solving for ILambda_90_0, Initial residual = 1, Final residual = 3.20685504199e-61, No Iterations 72
DILUPBiCGStab:  Solving for ILambda_91_0, Initial residual = 1, Final residual = 1.24534862901e-61, No Iterations 72
DILUPBiCGStab:  Solving for ILambda_92_0, Initial residual = 1, Final residual = 6.7433330152e-61, No Iterations 67
DILUPBiCGStab:  Solving for ILambda_93_0, Initial residual = 1, Final residual = 2.71121841494e-61, No Iterations 62
DILUPBiCGStab:  Solving for ILambda_94_0, Initial residual = 1, Final residual = 6.30766430179e-61, No Iterations 50
DILUPBiCGStab:  Solving for ILambda_95_0, Initial residual = 1, Final residual = 6.46359908312e-61, No Iterations 35
DILUPBiCGStab:  Solving for ILambda_96_0, Initial residual = 1, Final residual = 1.11909980451e-71, No Iterations 3
DILUPBiCGStab:  Solving for ILambda_97_0, Initial residual = 1, Final residual = 2.54782028237e-73, No Iterations 3
DILUPBiCGStab:  Solving for ILambda_98_0, Initial residual = 1, Final residual = 4.47693711275e-72, No Iterations 3
DILUPBiCGStab:  Solving for ILambda_99_0, Initial residual = 1, Final residual = 6.51149271899e-73, No Iterations 3
DILUPBiCGStab:  Solving for ILambda_100_0, Initial residual = 1, Final residual = 1.20137430512e-70, No Iterations 3
DILUPBiCGStab:  Solving for ILambda_101_0, Initial residual = 1, Final residual = 1.0657782744e-69, No Iterations 3
DILUPBiCGStab:  Solving for ILambda_102_0, Initial residual = 1, Final residual = 1.72381717917e-69, No Iterations 3
DILUPBiCGStab:  Solving for ILambda_103_0, Initial residual = 1, Final residual = 1.75716461129e-73, No Iterations 3
DILUPBiCGStab:  Solving for ILambda_104_0, Initial residual = 1, Final residual = 1.40257777361e-72, No Iterations 3
DILUPBiCGStab:  Solving for ILambda_105_0, Initial residual = 1, Final residual = 8.21767736989e-74, No Iterations 3
DILUPBiCGStab:  Solving for ILambda_106_0, Initial residual = 1, Final residual = 5.56516641342e-73, No Iterations 3
DILUPBiCGStab:  Solving for ILambda_107_0, Initial residual = 1, Final residual = 1.13796599276e-72, No Iterations 3
DILUPBiCGStab:  Solving for ILambda_108_0, Initial residual = 1, Final residual = 4.1629458655e-61, No Iterations 36
DILUPBiCGStab:  Solving for ILambda_109_0, Initial residual = 1, Final residual = 8.36436556384e-61, No Iterations 50
DILUPBiCGStab:  Solving for ILambda_110_0, Initial residual = 1, Final residual = 5.01165538378e-61, No Iterations 62
DILUPBiCGStab:  Solving for ILambda_111_0, Initial residual = 1, Final residual = 9.70606606183e-61, No Iterations 66
DILUPBiCGStab:  Solving for ILambda_112_0, Initial residual = 1, Final residual = 3.00777907602e-61, No Iterations 72
DILUPBiCGStab:  Solving for ILambda_113_0, Initial residual = 1, Final residual = 7.79427104322e-61, No Iterations 70
DILUPBiCGStab:  Solving for ILambda_114_0, Initial residual = 1, Final residual = 1.87451316885e-61, No Iterations 73
DILUPBiCGStab:  Solving for ILambda_115_0, Initial residual = 1, Final residual = 6.24635247184e-61, No Iterations 70
DILUPBiCGStab:  Solving for ILambda_116_0, Initial residual = 1, Final residual = 1.5508105547e-61, No Iterations 66
DILUPBiCGStab:  Solving for ILambda_117_0, Initial residual = 1, Final residual = 1.83346046332e-61, No Iterations 60
DILUPBiCGStab:  Solving for ILambda_118_0, Initial residual = 1, Final residual = 1.04971699987e-61, No Iterations 50
DILUPBiCGStab:  Solving for ILambda_119_0, Initial residual = 1, Final residual = 1.6442529491e-61, No Iterations 35
DILUPBiCGStab:  Solving for ILambda_120_0, Initial residual = 1, Final residual = 7.28914030612e-62, No Iterations 26
DILUPBiCGStab:  Solving for ILambda_121_0, Initial residual = 1, Final residual = 1.32768539713e-61, No Iterations 26
DILUPBiCGStab:  Solving for ILambda_122_0, Initial residual = 1, Final residual = 4.74352481529e-63, No Iterations 32
DILUPBiCGStab:  Solving for ILambda_123_0, Initial residual = 1, Final residual = 4.59015413255e-61, No Iterations 31
DILUPBiCGStab:  Solving for ILambda_124_0, Initial residual = 1, Final residual = 2.45573635807e-61, No Iterations 32
DILUPBiCGStab:  Solving for ILambda_125_0, Initial residual = 1, Final residual = 5.71109189673e-62, No Iterations 34
DILUPBiCGStab:  Solving for ILambda_126_0, Initial residual = 1, Final residual = 1.34074617179e-61, No Iterations 37
DILUPBiCGStab:  Solving for ILambda_127_0, Initial residual = 1, Final residual = 3.8812124031e-62, No Iterations 33
DILUPBiCGStab:  Solving for ILambda_128_0, Initial residual = 1, Final residual = 5.96760624263e-62, No Iterations 32
DILUPBiCGStab:  Solving for ILambda_129_0, Initial residual = 1, Final residual = 1.65302121381e-62, No Iterations 29
DILUPBiCGStab:  Solving for ILambda_130_0, Initial residual = 1, Final residual = 1.83130982183e-61, No Iterations 26
DILUPBiCGStab:  Solving for ILambda_131_0, Initial residual = 1, Final residual = 3.43604873959e-62, No Iterations 26
DILUPBiCGStab:  Solving for ILambda_132_0, Initial residual = 1, Final residual = 4.71915044388e-61, No Iterations 34
DILUPBiCGStab:  Solving for ILambda_133_0, Initial residual = 1, Final residual = 1.70462028589e-61, No Iterations 50
DILUPBiCGStab:  Solving for ILambda_134_0, Initial residual = 1, Final residual = 7.73187283511e-61, No Iterations 61
DILUPBiCGStab:  Solving for ILambda_135_0, Initial residual = 1, Final residual = 8.14667375572e-61, No Iterations 66
DILUPBiCGStab:  Solving for ILambda_136_0, Initial residual = 1, Final residual = 4.16020493124e-61, No Iterations 72
DILUPBiCGStab:  Solving for ILambda_137_0, Initial residual = 1, Final residual = 1.28708560197e-61, No Iterations 72
DILUPBiCGStab:  Solving for ILambda_138_0, Initial residual = 1, Final residual = 7.07515528593e-61, No Iterations 72
DILUPBiCGStab:  Solving for ILambda_139_0, Initial residual = 1, Final residual = 3.73306876373e-61, No Iterations 70
DILUPBiCGStab:  Solving for ILambda_140_0, Initial residual = 1, Final residual = 2.9100086526e-61, No Iterations 65
DILUPBiCGStab:  Solving for ILambda_141_0, Initial residual = 1, Final residual = 1.40385754908e-61, No Iterations 62
DILUPBiCGStab:  Solving for ILambda_142_0, Initial residual = 1, Final residual = 7.26228111722e-61, No Iterations 50
DILUPBiCGStab:  Solving for ILambda_143_0, Initial residual = 1, Final residual = 4.80683525314e-62, No Iterations 36
DILUPBiCGStab:  Solving for ILambda_144_0, Initial residual = 1, Final residual = 1.10534524949e-64, No Iterations 29
DILUPBiCGStab:  Solving for ILambda_145_0, Initial residual = 1, Final residual = 1.14577647548e-62, No Iterations 38
DILUPBiCGStab:  Solving for ILambda_146_0, Initial residual = 1, Final residual = 1.02716647534e-61, No Iterations 41
DILUPBiCGStab:  Solving for ILambda_147_0, Initial residual = 1, Final residual = 5.18949337135e-62, No Iterations 40
DILUPBiCGStab:  Solving for ILambda_148_0, Initial residual = 1, Final residual = 2.99824394147e-61, No Iterations 43
DILUPBiCGStab:  Solving for ILambda_149_0, Initial residual = 1, Final residual = 5.77978989197e-64, No Iterations 34
DILUPBiCGStab:  Solving for ILambda_150_0, Initial residual = 1, Final residual = 7.80246302068e-61, No Iterations 36
DILUPBiCGStab:  Solving for ILambda_151_0, Initial residual = 1, Final residual = 3.7018275499e-61, No Iterations 35
DILUPBiCGStab:  Solving for ILambda_152_0, Initial residual = 1, Final residual = 7.43731191837e-62, No Iterations 41
DILUPBiCGStab:  Solving for ILambda_153_0, Initial residual = 1, Final residual = 7.57266364055e-62, No Iterations 39
DILUPBiCGStab:  Solving for ILambda_154_0, Initial residual = 1, Final residual = 3.9418539277e-61, No Iterations 45
DILUPBiCGStab:  Solving for ILambda_155_0, Initial residual = 1, Final residual = 1.97507627254e-61, No Iterations 32
DILUPBiCGStab:  Solving for ILambda_156_0, Initial residual = 1, Final residual = 3.43679844421e-62, No Iterations 36
DILUPBiCGStab:  Solving for ILambda_157_0, Initial residual = 1, Final residual = 9.28758456491e-61, No Iterations 51
DILUPBiCGStab:  Solving for ILambda_158_0, Initial residual = 1, Final residual = 6.78652012575e-61, No Iterations 60
DILUPBiCGStab:  Solving for ILambda_159_0, Initial residual = 1, Final residual = 8.2204836137e-61, No Iterations 66
DILUPBiCGStab:  Solving for ILambda_160_0, Initial residual = 1, Final residual = 6.36644019659e-62, No Iterations 71
DILUPBiCGStab:  Solving for ILambda_161_0, Initial residual = 1, Final residual = 7.70619807961e-61, No Iterations 70
DILUPBiCGStab:  Solving for ILambda_162_0, Initial residual = 1, Final residual = 4.2195310638e-61, No Iterations 70
DILUPBiCGStab:  Solving for ILambda_163_0, Initial residual = 1, Final residual = 3.12303852983e-61, No Iterations 71
DILUPBiCGStab:  Solving for ILambda_164_0, Initial residual = 1, Final residual = 6.06646589335e-61, No Iterations 66
DILUPBiCGStab:  Solving for ILambda_165_0, Initial residual = 1, Final residual = 7.79683415486e-61, No Iterations 60
DILUPBiCGStab:  Solving for ILambda_166_0, Initial residual = 1, Final residual = 4.27509175593e-61, No Iterations 52
DILUPBiCGStab:  Solving for ILambda_167_0, Initial residual = 1, Final residual = 8.09330792649e-61, No Iterations 36
DILUPBiCGStab:  Solving for ILambda_168_0, Initial residual = 1, Final residual = 1.7591506791e-61, No Iterations 3
DILUPBiCGStab:  Solving for ILambda_169_0, Initial residual = 1, Final residual = 2.40765847289e-61, No Iterations 3
DILUPBiCGStab:  Solving for ILambda_170_0, Initial residual = 1, Final residual = 1.60813854275e-73, No Iterations 3
DILUPBiCGStab:  Solving for ILambda_171_0, Initial residual = 1, Final residual = 1.71491389079e-73, No Iterations 3
DILUPBiCGStab:  Solving for ILambda_172_0, Initial residual = 1, Final residual = 1.06607659857e-74, No Iterations 3
DILUPBiCGStab:  Solving for ILambda_173_0, Initial residual = 1, Final residual = 1.31469847433e-73, No Iterations 3
DILUPBiCGStab:  Solving for ILambda_174_0, Initial residual = 1, Final residual = 6.47806680263e-76, No Iterations 3
DILUPBiCGStab:  Solving for ILambda_175_0, Initial residual = 1, Final residual = 1.61898622741e-73, No Iterations 3
DILUPBiCGStab:  Solving for ILambda_176_0, Initial residual = 1, Final residual = 4.51090247032e-64, No Iterations 3
DILUPBiCGStab:  Solving for ILambda_177_0, Initial residual = 1, Final residual = 5.01939940964e-61, No Iterations 3
DILUPBiCGStab:  Solving for ILambda_178_0, Initial residual = 1, Final residual = 7.34662109772e-64, No Iterations 3
DILUPBiCGStab:  Solving for ILambda_179_0, Initial residual = 1, Final residual = 1.11247899469e-75, No Iterations 3
DILUPBiCGStab:  Solving for ILambda_180_0, Initial residual = 1, Final residual = 2.98601958928e-61, No Iterations 37
DILUPBiCGStab:  Solving for ILambda_181_0, Initial residual = 1, Final residual = 1.60173243859e-61, No Iterations 52
DILUPBiCGStab:  Solving for ILambda_182_0, Initial residual = 1, Final residual = 9.0388070412e-61, No Iterations 60
DILUPBiCGStab:  Solving for ILambda_183_0, Initial residual = 1, Final residual = 2.15221454864e-61, No Iterations 66
DILUPBiCGStab:  Solving for ILambda_184_0, Initial residual = 1, Final residual = 9.32860525026e-61, No Iterations 72
DILUPBiCGStab:  Solving for ILambda_185_0, Initial residual = 1, Final residual = 2.41970383717e-61, No Iterations 69
DILUPBiCGStab:  Solving for ILambda_186_0, Initial residual = 1, Final residual = 3.001490343e-61, No Iterations 68
DILUPBiCGStab:  Solving for ILambda_187_0, Initial residual = 1, Final residual = 3.61568378537e-61, No Iterations 70
DILUPBiCGStab:  Solving for ILambda_188_0, Initial residual = 1, Final residual = 3.78513614767e-61, No Iterations 66
DILUPBiCGStab:  Solving for ILambda_189_0, Initial residual = 1, Final residual = 3.70500205601e-61, No Iterations 60
DILUPBiCGStab:  Solving for ILambda_190_0, Initial residual = 1, Final residual = 6.67747499096e-61, No Iterations 51
DILUPBiCGStab:  Solving for ILambda_191_0, Initial residual = 1, Final residual = 2.39027049722e-61, No Iterations 36
DILUPBiCGStab:  Solving for ILambda_192_0, Initial residual = 1, Final residual = 6.65289912944e-62, No Iterations 39
DILUPBiCGStab:  Solving for ILambda_193_0, Initial residual = 1, Final residual = 2.22214798159e-62, No Iterations 37
DILUPBiCGStab:  Solving for ILambda_194_0, Initial residual = 1, Final residual = 1.05520457749e-61, No Iterations 31
DILUPBiCGStab:  Solving for ILambda_195_0, Initial residual = 1, Final residual = 6.84189673066e-63, No Iterations 23
DILUPBiCGStab:  Solving for ILambda_196_0, Initial residual = 1, Final residual = 6.89998819163e-62, No Iterations 31
DILUPBiCGStab:  Solving for ILambda_197_0, Initial residual = 1, Final residual = 2.45782982055e-62, No Iterations 32
DILUPBiCGStab:  Solving for ILambda_198_0, Initial residual = 1, Final residual = 8.00714602899e-63, No Iterations 35
DILUPBiCGStab:  Solving for ILambda_199_0, Initial residual = 1, Final residual = 5.2573985111e-61, No Iterations 35
DILUPBiCGStab:  Solving for ILambda_200_0, Initial residual = 1, Final residual = 4.75634893713e-62, No Iterations 28
DILUPBiCGStab:  Solving for ILambda_201_0, Initial residual = 1, Final residual = 1.37660475104e-63, No Iterations 32
DILUPBiCGStab:  Solving for ILambda_202_0, Initial residual = 1, Final residual = 4.69277600223e-61, No Iterations 26
DILUPBiCGStab:  Solving for ILambda_203_0, Initial residual = 1, Final residual = 3.01412179863e-62, No Iterations 29
DILUPBiCGStab:  Solving for ILambda_204_0, Initial residual = 1, Final residual = 4.66071717042e-62, No Iterations 36
DILUPBiCGStab:  Solving for ILambda_205_0, Initial residual = 1, Final residual = 3.47872266954e-61, No Iterations 50
DILUPBiCGStab:  Solving for ILambda_206_0, Initial residual = 1, Final residual = 1.05819583094e-61, No Iterations 59
DILUPBiCGStab:  Solving for ILambda_207_0, Initial residual = 1, Final residual = 5.171109724e-61, No Iterations 67
DILUPBiCGStab:  Solving for ILambda_208_0, Initial residual = 1, Final residual = 5.63375796141e-61, No Iterations 70
DILUPBiCGStab:  Solving for ILambda_209_0, Initial residual = 1, Final residual = 8.06127945312e-61, No Iterations 70
DILUPBiCGStab:  Solving for ILambda_210_0, Initial residual = 1, Final residual = 5.53691092489e-61, No Iterations 68
DILUPBiCGStab:  Solving for ILambda_211_0, Initial residual = 1, Final residual = 9.56086567947e-61, No Iterations 72
DILUPBiCGStab:  Solving for ILambda_212_0, Initial residual = 1, Final residual = 1.40735684964e-61, No Iterations 66
DILUPBiCGStab:  Solving for ILambda_213_0, Initial residual = 1, Final residual = 6.62294855724e-61, No Iterations 60
DILUPBiCGStab:  Solving for ILambda_214_0, Initial residual = 1, Final residual = 1.35379925242e-61, No Iterations 52
DILUPBiCGStab:  Solving for ILambda_215_0, Initial residual = 1, Final residual = 5.06444013479e-61, No Iterations 36
DILUPBiCGStab:  Solving for ILambda_216_0, Initial residual = 1, Final residual = 3.79970639347e-63, No Iterations 3
DILUPBiCGStab:  Solving for ILambda_217_0, Initial residual = 1, Final residual = 5.18589897043e-61, No Iterations 3
DILUPBiCGStab:  Solving for ILambda_218_0, Initial residual = 1, Final residual = 4.74780956788e-61, No Iterations 3
DILUPBiCGStab:  Solving for ILambda_219_0, Initial residual = 1, Final residual = 3.6127203345e-62, No Iterations 3
DILUPBiCGStab:  Solving for ILambda_220_0, Initial residual = 1, Final residual = 1.04609955397e-73, No Iterations 3
DILUPBiCGStab:  Solving for ILambda_221_0, Initial residual = 1, Final residual = 1.42271437838e-63, No Iterations 3
DILUPBiCGStab:  Solving for ILambda_222_0, Initial residual = 1, Final residual = 5.6461206772e-75, No Iterations 3
DILUPBiCGStab:  Solving for ILambda_223_0, Initial residual = 1, Final residual = 8.54997381693e-73, No Iterations 3
DILUPBiCGStab:  Solving for ILambda_224_0, Initial residual = 1, Final residual = 1.11991985497e-72, No Iterations 3
DILUPBiCGStab:  Solving for ILambda_225_0, Initial residual = 1, Final residual = 7.35534139521e-61, No Iterations 3
DILUPBiCGStab:  Solving for ILambda_226_0, Initial residual = 1, Final residual = 3.77629093765e-61, No Iterations 3
DILUPBiCGStab:  Solving for ILambda_227_0, Initial residual = 1, Final residual = 2.55096286614e-61, No Iterations 3
DILUPBiCGStab:  Solving for ILambda_228_0, Initial residual = 1, Final residual = 2.87139761033e-61, No Iterations 36
DILUPBiCGStab:  Solving for ILambda_229_0, Initial residual = 1, Final residual = 1.1217837341e-61, No Iterations 51
DILUPBiCGStab:  Solving for ILambda_230_0, Initial residual = 1, Final residual = 6.06611876035e-61, No Iterations 60
DILUPBiCGStab:  Solving for ILambda_231_0, Initial residual = 1, Final residual = 4.81660886393e-61, No Iterations 67
DILUPBiCGStab:  Solving for ILambda_232_0, Initial residual = 1, Final residual = 1.01688298992e-61, No Iterations 72
DILUPBiCGStab:  Solving for ILambda_233_0, Initial residual = 1, Final residual = 7.04379394046e-61, No Iterations 68
DILUPBiCGStab:  Solving for ILambda_234_0, Initial residual = 1, Final residual = 6.72010076844e-61, No Iterations 70
DILUPBiCGStab:  Solving for ILambda_235_0, Initial residual = 1, Final residual = 2.41166105805e-61, No Iterations 71
DILUPBiCGStab:  Solving for ILambda_236_0, Initial residual = 1, Final residual = 3.55650847716e-61, No Iterations 66
DILUPBiCGStab:  Solving for ILambda_237_0, Initial residual = 1, Final residual = 4.48051722726e-61, No Iterations 59
DILUPBiCGStab:  Solving for ILambda_238_0, Initial residual = 1, Final residual = 1.15028028868e-62, No Iterations 51
DILUPBiCGStab:  Solving for ILambda_239_0, Initial residual = 1, Final residual = 9.53841863126e-61, No Iterations 35
DILUPBiCGStab:  Solving for ILambda_240_0, Initial residual = 1, Final residual = 6.79537345919e-63, No Iterations 23
DILUPBiCGStab:  Solving for ILambda_241_0, Initial residual = 1, Final residual = 2.97236397925e-64, No Iterations 24
DILUPBiCGStab:  Solving for ILambda_242_0, Initial residual = 1, Final residual = 4.13048925179e-61, No Iterations 26
DILUPBiCGStab:  Solving for ILambda_243_0, Initial residual = 1, Final residual = 1.67913427637e-61, No Iterations 23
DILUPBiCGStab:  Solving for ILambda_244_0, Initial residual = 1, Final residual = 1.33318208993e-61, No Iterations 24
DILUPBiCGStab:  Solving for ILambda_245_0, Initial residual = 1, Final residual = 1.40421984391e-61, No Iterations 25
DILUPBiCGStab:  Solving for ILambda_246_0, Initial residual = 1, Final residual = 3.91809689856e-61, No Iterations 24
DILUPBiCGStab:  Solving for ILambda_247_0, Initial residual = 1, Final residual = 7.75606830927e-62, No Iterations 25
DILUPBiCGStab:  Solving for ILambda_248_0, Initial residual = 1, Final residual = 1.90322247686e-61, No Iterations 25
DILUPBiCGStab:  Solving for ILambda_249_0, Initial residual = 1, Final residual = 9.81777785574e-62, No Iterations 24
DILUPBiCGStab:  Solving for ILambda_250_0, Initial residual = 1, Final residual = 5.80300757548e-61, No Iterations 25
DILUPBiCGStab:  Solving for ILambda_251_0, Initial residual = 1, Final residual = 9.43122545213e-61, No Iterations 20
DILUPBiCGStab:  Solving for ILambda_252_0, Initial residual = 1, Final residual = 2.480059475e-61, No Iterations 35
DILUPBiCGStab:  Solving for ILambda_253_0, Initial residual = 1, Final residual = 6.31302930745e-61, No Iterations 49
DILUPBiCGStab:  Solving for ILambda_254_0, Initial residual = 1, Final residual = 1.80671314503e-61, No Iterations 59
DILUPBiCGStab:  Solving for ILambda_255_0, Initial residual = 1, Final residual = 3.86189650379e-62, No Iterations 67
DILUPBiCGStab:  Solving for ILambda_256_0, Initial residual = 1, Final residual = 2.07835259592e-61, No Iterations 71
DILUPBiCGStab:  Solving for ILambda_257_0, Initial residual = 1, Final residual = 8.25759169478e-61, No Iterations 69
DILUPBiCGStab:  Solving for ILambda_258_0, Initial residual = 1, Final residual = 5.33921357339e-61, No Iterations 71
DILUPBiCGStab:  Solving for ILambda_259_0, Initial residual = 1, Final residual = 6.66262170826e-61, No Iterations 72
DILUPBiCGStab:  Solving for ILambda_260_0, Initial residual = 1, Final residual = 6.91002221404e-61, No Iterations 67
DILUPBiCGStab:  Solving for ILambda_261_0, Initial residual = 1, Final residual = 4.42696605484e-61, No Iterations 59
DILUPBiCGStab:  Solving for ILambda_262_0, Initial residual = 1, Final residual = 8.59009759012e-61, No Iterations 50
DILUPBiCGStab:  Solving for ILambda_263_0, Initial residual = 1, Final residual = 7.99009826446e-62, No Iterations 36
DILUPBiCGStab:  Solving for ILambda_264_0, Initial residual = 1, Final residual = 1.43600896736e-62, No Iterations 3
DILUPBiCGStab:  Solving for ILambda_265_0, Initial residual = 1, Final residual = 5.39097828095e-63, No Iterations 3
DILUPBiCGStab:  Solving for ILambda_266_0, Initial residual = 1, Final residual = 6.00516988999e-61, No Iterations 3
DILUPBiCGStab:  Solving for ILambda_267_0, Initial residual = 1, Final residual = 1.36579720893e-61, No Iterations 3
DILUPBiCGStab:  Solving for ILambda_268_0, Initial residual = 1, Final residual = 9.40347944408e-63, No Iterations 3
DILUPBiCGStab:  Solving for ILambda_269_0, Initial residual = 1, Final residual = 3.92936428407e-63, No Iterations 3
DILUPBiCGStab:  Solving for ILambda_270_0, Initial residual = 1, Final residual = 5.23489727776e-63, No Iterations 3
DILUPBiCGStab:  Solving for ILambda_271_0, Initial residual = 1, Final residual = 3.00733043235e-66, No Iterations 3
DILUPBiCGStab:  Solving for ILambda_272_0, Initial residual = 1, Final residual = 4.9492060169e-62, No Iterations 3
DILUPBiCGStab:  Solving for ILambda_273_0, Initial residual = 1, Final residual = 2.821952064e-65, No Iterations 3
DILUPBiCGStab:  Solving for ILambda_274_0, Initial residual = 1, Final residual = 1.47672663302e-63, No Iterations 3
DILUPBiCGStab:  Solving for ILambda_275_0, Initial residual = 1, Final residual = 6.61458728257e-64, No Iterations 3
DILUPBiCGStab:  Solving for ILambda_276_0, Initial residual = 1, Final residual = 8.20365546188e-62, No Iterations 36
DILUPBiCGStab:  Solving for ILambda_277_0, Initial residual = 1, Final residual = 2.62109425177e-61, No Iterations 51
DILUPBiCGStab:  Solving for ILambda_278_0, Initial residual = 1, Final residual = 7.65954119939e-61, No Iterations 59
DILUPBiCGStab:  Solving for ILambda_279_0, Initial residual = 1, Final residual = 7.72002447718e-62, No Iterations 66
DILUPBiCGStab:  Solving for ILambda_280_0, Initial residual = 1, Final residual = 1.33937523215e-61, No Iterations 69
DILUPBiCGStab:  Solving for ILambda_281_0, Initial residual = 1, Final residual = 4.76248407374e-61, No Iterations 71
DILUPBiCGStab:  Solving for ILambda_282_0, Initial residual = 1, Final residual = 7.7168965828e-61, No Iterations 71
DILUPBiCGStab:  Solving for ILambda_283_0, Initial residual = 1, Final residual = 7.15321591117e-61, No Iterations 72
DILUPBiCGStab:  Solving for ILambda_284_0, Initial residual = 1, Final residual = 2.73395103182e-61, No Iterations 67
DILUPBiCGStab:  Solving for ILambda_285_0, Initial residual = 1, Final residual = 4.39636916695e-61, No Iterations 59
[...]
DILUPBiCGStab:  Solving for ILambda_140_0, Initial residual = 7.48991761504e-16, Final residual = 5.25409545887e-61, No Iterations 45
DILUPBiCGStab:  Solving for ILambda_141_0, Initial residual = 6.96928238376e-16, Final residual = 2.02462920394e-61, No Iterations 42
DILUPBiCGStab:  Solving for ILambda_142_0, Initial residual = 6.32465728539e-16, Final residual = 2.61571048113e-61, No Iterations 34
DILUPBiCGStab:  Solving for ILambda_143_0, Initial residual = 6.11206296223e-16, Final residual = 6.73854141446e-62, No Iterations 29
DILUPBiCGStab:  Solving for ILambda_144_0, Initial residual = 6.35047375627e-16, Final residual = 4.93410007279e-61, No Iterations 10
DILUPBiCGStab:  Solving for ILambda_145_0, Initial residual = 6.04166647059e-16, Final residual = 3.1398827787e-64, No Iterations 14
DILUPBiCGStab:  Solving for ILambda_146_0, Initial residual = 6.29783720512e-16, Final residual = 1.7675708242e-61, No Iterations 11
DILUPBiCGStab:  Solving for ILambda_147_0, Initial residual = 5.15671722828e-16, Final residual = 3.93571505061e-64, No Iterations 14
DILUPBiCGStab:  Solving for ILambda_148_0, Initial residual = 5.3884736114e-16, Final residual = 4.59072758599e-61, No Iterations 12
DILUPBiCGStab:  Solving for ILambda_149_0, Initial residual = 5.11979642279e-16, Final residual = 2.48299466458e-61, No Iterations 12
DILUPBiCGStab:  Solving for ILambda_150_0, Initial residual = 4.22072367234e-16, Final residual = 2.5281391265e-61, No Iterations 13
DILUPBiCGStab:  Solving for ILambda_151_0, Initial residual = 4.9114001526e-16, Final residual = 8.46691534234e-61, No Iterations 13
DILUPBiCGStab:  Solving for ILambda_152_0, Initial residual = 5.58830929098e-16, Final residual = 1.29047705785e-62, No Iterations 11
DILUPBiCGStab:  Solving for ILambda_153_0, Initial residual = 7.94874878256e-16, Final residual = 4.28369279021e-61, No Iterations 13
DILUPBiCGStab:  Solving for ILambda_154_0, Initial residual = 7.63543406269e-16, Final residual = 3.49885139826e-62, No Iterations 13
DILUPBiCGStab:  Solving for ILambda_155_0, Initial residual = 7.75688548382e-16, Final residual = 6.35663944591e-62, No Iterations 14
DILUPBiCGStab:  Solving for ILambda_156_0, Initial residual = 6.28270547669e-16, Final residual = 1.88100294118e-62, No Iterations 27
DILUPBiCGStab:  Solving for ILambda_157_0, Initial residual = 6.95302660763e-16, Final residual = 2.358743716e-61, No Iterations 36
DILUPBiCGStab:  Solving for ILambda_158_0, Initial residual = 7.45812749752e-16, Final residual = 9.96499027671e-61, No Iterations 39
DILUPBiCGStab:  Solving for ILambda_159_0, Initial residual = 7.22184530676e-16, Final residual = 6.19855572142e-61, No Iterations 45
DILUPBiCGStab:  Solving for ILambda_160_0, Initial residual = 8.20810370329e-16, Final residual = 2.38973015255e-61, No Iterations 45
DILUPBiCGStab:  Solving for ILambda_161_0, Initial residual = 7.34666843298e-16, Final residual = 3.40803874398e-61, No Iterations 47
DILUPBiCGStab:  Solving for ILambda_162_0, Initial residual = 7.58041741591e-16, Final residual = 6.92470977078e-61, No Iterations 50
DILUPBiCGStab:  Solving for ILambda_163_0, Initial residual = 7.89683645463e-16, Final residual = 3.07043024499e-61, No Iterations 47
DILUPBiCGStab:  Solving for ILambda_164_0, Initial residual = 6.42381916418e-16, Final residual = 5.16932761247e-61, No Iterations 45
DILUPBiCGStab:  Solving for ILambda_165_0, Initial residual = 9.45761582995e-16, Final residual = 2.13357241966e-61, No Iterations 39
DILUPBiCGStab:  Solving for ILambda_166_0, Initial residual = 8.55541410335e-16, Final residual = 1.14650652181e-61, No Iterations 36
DILUPBiCGStab:  Solving for ILambda_167_0, Initial residual = 7.64513151772e-16, Final residual = 8.62796209076e-61, No Iterations 26
DILUPBiCGStab:  Solving for ILambda_168_0, Initial residual = 7.82826946214e-16, Final residual = 6.51632556472e-61, No Iterations 2
DILUPBiCGStab:  Solving for ILambda_169_0, Initial residual = 7.65150366439e-16, Final residual = 9.89846729967e-61, No Iterations 2
DILUPBiCGStab:  Solving for ILambda_170_0, Initial residual = 7.81740675096e-16, Final residual = 3.20374897216e-75, No Iterations 2
DILUPBiCGStab:  Solving for ILambda_171_0, Initial residual = 5.96203545554e-16, Final residual = 2.28776825134e-61, No Iterations 2
DILUPBiCGStab:  Solving for ILambda_172_0, Initial residual = 5.15463243254e-16, Final residual = 2.66244814487e-61, No Iterations 2
DILUPBiCGStab:  Solving for ILambda_173_0, Initial residual = 5.16951190175e-16, Final residual = 5.85736339129e-61, No Iterations 2
DILUPBiCGStab:  Solving for ILambda_174_0, Initial residual = 5.29589651356e-16, Final residual = 3.29738458968e-61, No Iterations 2
DILUPBiCGStab:  Solving for ILambda_175_0, Initial residual = 5.16950639469e-16, Final residual = 2.36902896376e-61, No Iterations 2
DILUPBiCGStab:  Solving for ILambda_176_0, Initial residual = 5.12394202419e-16, Final residual = 3.28986940159e-61, No Iterations 2
DILUPBiCGStab:  Solving for ILambda_177_0, Initial residual = 6.21007541897e-16, Final residual = 1.76190293601e-61, No Iterations 2
DILUPBiCGStab:  Solving for ILambda_178_0, Initial residual = 6.20934028121e-16, Final residual = 1.03231303937e-61, No Iterations 2
DILUPBiCGStab:  Solving for ILambda_179_0, Initial residual = 5.99529864687e-16, Final residual = 1.43518783456e-74, No Iterations 2
DILUPBiCGStab:  Solving for ILambda_180_0, Initial residual = 7.40716084038e-16, Final residual = 2.02160996535e-61, No Iterations 26
DILUPBiCGStab:  Solving for ILambda_181_0, Initial residual = 9.01971071444e-16, Final residual = 3.15872323778e-61, No Iterations 33
DILUPBiCGStab:  Solving for ILambda_182_0, Initial residual = 8.74177059082e-16, Final residual = 1.46564982792e-61, No Iterations 41
DILUPBiCGStab:  Solving for ILambda_183_0, Initial residual = 7.45998468137e-16, Final residual = 8.17655363536e-61, No Iterations 42
DILUPBiCGStab:  Solving for ILambda_184_0, Initial residual = 8.56040068153e-16, Final residual = 5.01376962315e-61, No Iterations 46
DILUPBiCGStab:  Solving for ILambda_185_0, Initial residual = 8.01131570846e-16, Final residual = 9.13973885841e-61, No Iterations 53
DILUPBiCGStab:  Solving for ILambda_186_0, Initial residual = 6.12323492517e-16, Final residual = 8.39208758698e-61, No Iterations 47
DILUPBiCGStab:  Solving for ILambda_187_0, Initial residual = 6.93820841318e-16, Final residual = 3.45880973952e-61, No Iterations 45
DILUPBiCGStab:  Solving for ILambda_188_0, Initial residual = 7.08888055465e-16, Final residual = 3.95834591743e-62, No Iterations 43
DILUPBiCGStab:  Solving for ILambda_189_0, Initial residual = 6.76116710309e-16, Final residual = 5.09505941763e-61, No Iterations 39
DILUPBiCGStab:  Solving for ILambda_190_0, Initial residual = 6.83216216141e-16, Final residual = 5.22747204045e-61, No Iterations 35
DILUPBiCGStab:  Solving for ILambda_191_0, Initial residual = 6.87256561981e-16, Final residual = 2.93221798232e-61, No Iterations 26
DILUPBiCGStab:  Solving for ILambda_192_0, Initial residual = 1.53748591483e-16, Final residual = 5.91596653198e-65, No Iterations 13
DILUPBiCGStab:  Solving for ILambda_193_0, Initial residual = 1.55667031175e-16, Final residual = 3.06808560171e-61, No Iterations 12
DILUPBiCGStab:  Solving for ILambda_194_0, Initial residual = 1.44048661777e-16, Final residual = 3.3413971783e-61, No Iterations 13
DILUPBiCGStab:  Solving for ILambda_195_0, Initial residual = 1.62781715284e-16, Final residual = 3.55920989208e-61, No Iterations 12
DILUPBiCGStab:  Solving for ILambda_196_0, Initial residual = 1.28455058314e-16, Final residual = 6.05130095744e-62, No Iterations 12
DILUPBiCGStab:  Solving for ILambda_197_0, Initial residual = 1.03564320292e-16, Final residual = 5.48709332228e-61, No Iterations 12
DILUPBiCGStab:  Solving for ILambda_198_0, Initial residual = 1.18324624882e-16, Final residual = 2.81746674825e-61, No Iterations 13
DILUPBiCGStab:  Solving for ILambda_199_0, Initial residual = 1.13827687485e-16, Final residual = 5.58499475373e-62, No Iterations 14
DILUPBiCGStab:  Solving for ILambda_200_0, Initial residual = 1.85282446439e-16, Final residual = 4.1038008559e-62, No Iterations 10
DILUPBiCGStab:  Solving for ILambda_201_0, Initial residual = 1.68102905238e-16, Final residual = 8.17022472636e-62, No Iterations 11
DILUPBiCGStab:  Solving for ILambda_202_0, Initial residual = 1.55688946387e-16, Final residual = 2.64034239695e-62, No Iterations 12
DILUPBiCGStab:  Solving for ILambda_203_0, Initial residual = 1.51460647968e-16, Final residual = 6.87430914562e-61, No Iterations 12
DILUPBiCGStab:  Solving for ILambda_204_0, Initial residual = 1.59169471674e-16, Final residual = 1.53832217619e-62, No Iterations 25
DILUPBiCGStab:  Solving for ILambda_205_0, Initial residual = 1.68737212018e-16, Final residual = 1.57635852407e-61, No Iterations 33
DILUPBiCGStab:  Solving for ILambda_206_0, Initial residual = 2.26622922674e-16, Final residual = 4.10555708954e-61, No Iterations 40
DILUPBiCGStab:  Solving for ILambda_207_0, Initial residual = 2.10015770176e-16, Final residual = 3.53405869564e-61, No Iterations 41
DILUPBiCGStab:  Solving for ILambda_208_0, Initial residual = 2.07446535385e-16, Final residual = 4.56101689829e-61, No Iterations 45
DILUPBiCGStab:  Solving for ILambda_209_0, Initial residual = 1.77961069811e-16, Final residual = 3.76744660208e-61, No Iterations 47
DILUPBiCGStab:  Solving for ILambda_210_0, Initial residual = 1.18570320431e-16, Final residual = 3.12223391999e-61, No Iterations 47
DILUPBiCGStab:  Solving for ILambda_211_0, Initial residual = 2.01651100908e-16, Final residual = 2.89073370942e-61, No Iterations 47
DILUPBiCGStab:  Solving for ILambda_212_0, Initial residual = 2.61343170633e-16, Final residual = 5.21436479369e-61, No Iterations 43
DILUPBiCGStab:  Solving for ILambda_213_0, Initial residual = 2.27526024283e-16, Final residual = 6.49810045288e-61, No Iterations 40
DILUPBiCGStab:  Solving for ILambda_214_0, Initial residual = 2.15496732094e-16, Final residual = 2.18214508366e-61, No Iterations 36
DILUPBiCGStab:  Solving for ILambda_215_0, Initial residual = 1.82126276044e-16, Final residual = 5.12367055734e-62, No Iterations 26
DILUPBiCGStab:  Solving for ILambda_216_0, Initial residual = 1.47236310548e-16, Final residual = 3.35418602909e-61, No Iterations 2
DILUPBiCGStab:  Solving for ILambda_217_0, Initial residual = 1.49350738347e-16, Final residual = 5.67031302129e-61, No Iterations 2
DILUPBiCGStab:  Solving for ILambda_218_0, Initial residual = 1.55604601727e-16, Final residual = 8.09333529891e-62, No Iterations 2
DILUPBiCGStab:  Solving for ILambda_219_0, Initial residual = 1.81421129848e-16, Final residual = 1.07489181384e-61, No Iterations 2
DILUPBiCGStab:  Solving for ILambda_220_0, Initial residual = 1.08787272457e-16, Final residual = 6.47917873235e-61, No Iterations 2
DILUPBiCGStab:  Solving for ILambda_221_0, Initial residual = 9.14531108304e-17, Final residual = 3.55581029184e-63, No Iterations 2
DILUPBiCGStab:  Solving for ILambda_222_0, Initial residual = 1.07169739331e-16, Final residual = 1.38667342164e-61, No Iterations 2
DILUPBiCGStab:  Solving for ILambda_223_0, Initial residual = 1.13555945433e-16, Final residual = 3.2719807442e-74, No Iterations 2
DILUPBiCGStab:  Solving for ILambda_224_0, Initial residual = 1.55532093761e-16, Final residual = 5.45401447705e-62, No Iterations 2
DILUPBiCGStab:  Solving for ILambda_225_0, Initial residual = 1.55636028319e-16, Final residual = 3.04629256219e-61, No Iterations 2
DILUPBiCGStab:  Solving for ILambda_226_0, Initial residual = 1.47561477557e-16, Final residual = 7.84967077395e-62, No Iterations 2
DILUPBiCGStab:  Solving for ILambda_227_0, Initial residual = 1.4607186607e-16, Final residual = 3.89860691489e-61, No Iterations 2
DILUPBiCGStab:  Solving for ILambda_228_0, Initial residual = 1.72986987474e-16, Final residual = 9.88139985328e-61, No Iterations 25
DILUPBiCGStab:  Solving for ILambda_229_0, Initial residual = 1.98544333723e-16, Final residual = 1.42966538111e-61, No Iterations 34
DILUPBiCGStab:  Solving for ILambda_230_0, Initial residual = 1.71444477338e-16, Final residual = 7.55773904075e-61, No Iterations 41
DILUPBiCGStab:  Solving for ILambda_231_0, Initial residual = 2.11929527372e-16, Final residual = 8.80277941301e-61, No Iterations 42
DILUPBiCGStab:  Solving for ILambda_232_0, Initial residual = 1.61811344886e-16, Final residual = 2.41644291586e-61, No Iterations 45
DILUPBiCGStab:  Solving for ILambda_233_0, Initial residual = 1.6698225583e-16, Final residual = 8.08830037208e-61, No Iterations 44
DILUPBiCGStab:  Solving for ILambda_234_0, Initial residual = 1.51066564532e-16, Final residual = 3.37931251216e-61, No Iterations 44
DILUPBiCGStab:  Solving for ILambda_235_0, Initial residual = 2.52863174265e-16, Final residual = 1.96173158643e-61, No Iterations 46
DILUPBiCGStab:  Solving for ILambda_236_0, Initial residual = 2.53805540315e-16, Final residual = 8.39644216485e-61, No Iterations 44
DILUPBiCGStab:  Solving for ILambda_237_0, Initial residual = 2.20115984484e-16, Final residual = 8.11133820238e-61, No Iterations 40
DILUPBiCGStab:  Solving for ILambda_238_0, Initial residual = 1.94536747422e-16, Final residual = 3.7425463088e-61, No Iterations 34
DILUPBiCGStab:  Solving for ILambda_239_0, Initial residual = 1.84381278775e-16, Final residual = 4.31723841529e-62, No Iterations 26
DILUPBiCGStab:  Solving for ILambda_240_0, Initial residual = 4.05204259249e-17, Final residual = 3.73319899777e-64, No Iterations 11
DILUPBiCGStab:  Solving for ILambda_241_0, Initial residual = 4.58086716082e-17, Final residual = 1.39273098405e-61, No Iterations 11
DILUPBiCGStab:  Solving for ILambda_242_0, Initial residual = 6.23327588685e-17, Final residual = 1.78521558321e-62, No Iterations 11
DILUPBiCGStab:  Solving for ILambda_243_0, Initial residual = 6.21344997218e-17, Final residual = 1.71537577636e-61, No Iterations 11
DILUPBiCGStab:  Solving for ILambda_244_0, Initial residual = 5.7769305794e-17, Final residual = 1.51391019919e-61, No Iterations 11
DILUPBiCGStab:  Solving for ILambda_245_0, Initial residual = 6.91949611971e-17, Final residual = 1.25482917427e-62, No Iterations 11
DILUPBiCGStab:  Solving for ILambda_246_0, Initial residual = 6.72847512236e-17, Final residual = 1.66965110186e-61, No Iterations 11
DILUPBiCGStab:  Solving for ILambda_247_0, Initial residual = 6.96329564672e-17, Final residual = 3.15751784939e-65, No Iterations 10
DILUPBiCGStab:  Solving for ILambda_248_0, Initial residual = 7.03457326307e-17, Final residual = 1.8716799345e-64, No Iterations 11
DILUPBiCGStab:  Solving for ILambda_249_0, Initial residual = 6.92878634606e-17, Final residual = 8.21251267348e-63, No Iterations 11
DILUPBiCGStab:  Solving for ILambda_250_0, Initial residual = 5.29702249824e-17, Final residual = 1.403805759e-61, No Iterations 10
DILUPBiCGStab:  Solving for ILambda_251_0, Initial residual = 4.9957055165e-17, Final residual = 4.55879725512e-62, No Iterations 10
DILUPBiCGStab:  Solving for ILambda_252_0, Initial residual = 3.8616929486e-17, Final residual = 9.57467713958e-62, No Iterations 25
DILUPBiCGStab:  Solving for ILambda_253_0, Initial residual = 5.17897532663e-17, Final residual = 3.55411280417e-62, No Iterations 34
DILUPBiCGStab:  Solving for ILambda_254_0, Initial residual = 7.0967955247e-17, Final residual = 7.77465017578e-61, No Iterations 40
DILUPBiCGStab:  Solving for ILambda_255_0, Initial residual = 7.83226129903e-17, Final residual = 3.12328036833e-61, No Iterations 42
DILUPBiCGStab:  Solving for ILambda_256_0, Initial residual = 7.3920876282e-17, Final residual = 5.64545398179e-61, No Iterations 46
DILUPBiCGStab:  Solving for ILambda_257_0, Initial residual = 8.50156069103e-17, Final residual = 2.33790222585e-61, No Iterations 48
DILUPBiCGStab:  Solving for ILambda_258_0, Initial residual = 9.18359339217e-17, Final residual = 4.93184632958e-61, No Iterations 48
DILUPBiCGStab:  Solving for ILambda_259_0, Initial residual = 8.63744282071e-17, Final residual = 3.75190407678e-61, No Iterations 48
DILUPBiCGStab:  Solving for ILambda_260_0, Initial residual = 7.79287327084e-17, Final residual = 5.11843680682e-61, No Iterations 43
DILUPBiCGStab:  Solving for ILambda_261_0, Initial residual = 8.18699885607e-17, Final residual = 5.24393872855e-61, No Iterations 38
DILUPBiCGStab:  Solving for ILambda_262_0, Initial residual = 6.06151334296e-17, Final residual = 2.57638713977e-62, No Iterations 34
DILUPBiCGStab:  Solving for ILambda_263_0, Initial residual = 5.94027279838e-17, Final residual = 1.62871805284e-62, No Iterations 26
DILUPBiCGStab:  Solving for ILambda_264_0, Initial residual = 5.25793947455e-17, Final residual = 3.47982489238e-62, No Iterations 2
DILUPBiCGStab:  Solving for ILambda_265_0, Initial residual = 5.2962235264e-17, Final residual = 3.25220589706e-63, No Iterations 2
DILUPBiCGStab:  Solving for ILambda_266_0, Initial residual = 6.7638201916e-17, Final residual = 2.43007247659e-62, No Iterations 2
DILUPBiCGStab:  Solving for ILambda_267_0, Initial residual = 7.26497427201e-17, Final residual = 7.06028627492e-62, No Iterations 2
DILUPBiCGStab:  Solving for ILambda_268_0, Initial residual = 7.00385282975e-17, Final residual = 2.16085952885e-62, No Iterations 2
DILUPBiCGStab:  Solving for ILambda_269_0, Initial residual = 6.89035662596e-17, Final residual = 2.10553616682e-62, No Iterations 2
DILUPBiCGStab:  Solving for ILambda_270_0, Initial residual = 6.86547161014e-17, Final residual = 2.26497311537e-62, No Iterations 2
DILUPBiCGStab:  Solving for ILambda_271_0, Initial residual = 5.8348477988e-17, Final residual = 1.45226457077e-62, No Iterations 2
DILUPBiCGStab:  Solving for ILambda_272_0, Initial residual = 6.17612517456e-17, Final residual = 2.73318196588e-62, No Iterations 2
DILUPBiCGStab:  Solving for ILambda_273_0, Initial residual = 6.31718331841e-17, Final residual = 1.33329209194e-61, No Iterations 2
DILUPBiCGStab:  Solving for ILambda_274_0, Initial residual = 4.14289434729e-17, Final residual = 2.17880611305e-62, No Iterations 2
DILUPBiCGStab:  Solving for ILambda_275_0, Initial residual = 3.5556054635e-17, Final residual = 1.35761603591e-62, No Iterations 2
DILUPBiCGStab:  Solving for ILambda_276_0, Initial residual = 5.05892487471e-17, Final residual = 7.84858201372e-63, No Iterations 24
DILUPBiCGStab:  Solving for ILambda_277_0, Initial residual = 5.62566027454e-17, Final residual = 7.46757068084e-61, No Iterations 35
DILUPBiCGStab:  Solving for ILambda_278_0, Initial residual = 8.10571502085e-17, Final residual = 5.29212880542e-61, No Iterations 39
DILUPBiCGStab:  Solving for ILambda_279_0, Initial residual = 7.86744389507e-17, Final residual = 2.31503965952e-61, No Iterations 42
DILUPBiCGStab:  Solving for ILambda_280_0, Initial residual = 9.15873501533e-17, Final residual = 2.04888913967e-61, No Iterations 48
DILUPBiCGStab:  Solving for ILambda_281_0, Initial residual = 9.62614839347e-17, Final residual = 3.58405788508e-61, No Iterations 47
DILUPBiCGStab:  Solving for ILambda_282_0, Initial residual = 9.04408795548e-17, Final residual = 3.13256353949e-61, No Iterations 44
DILUPBiCGStab:  Solving for ILambda_283_0, Initial residual = 8.13825905786e-17, Final residual = 5.33471185354e-61, No Iterations 41
DILUPBiCGStab:  Solving for ILambda_284_0, Initial residual = 7.57640933165e-17, Final residual = 3.81012480934e-61, No Iterations 41
DILUPBiCGStab:  Solving for ILambda_285_0, Initial residual = 7.31775068058e-17, Final residual = 1.46190499806e-61, No Iterations 38
DILUPBiCGStab:  Solving for ILambda_286_0, Initial residual = 4.86464161639e-17, Final residual = 7.97130539334e-61, No Iterations 34
DILUPBiCGStab:  Solving for ILambda_287_0, Initial residual = 4.41784453555e-17, Final residual = 7.2368903992e-62, No Iterations 26
min/max(T) = 1000, 1000
ExecutionTime = 35.37 s  ClockTime = 35 s

writeObjects writeObjects1.writeObjects write:
    writing object a
    writing object qem
End

