/*---------------------------------------------------------------------------*\
| =========                 |                                                 |
| \\      /  F ield         | OpenFOAM: The Open Source CFD Toolbox           |
|  \\    /   O peration     | Version:  2306                                  |
|   \\  /    A nd           | Website:  www.openfoam.com                      |
|    \\/     M anipulation  |                                                 |
\*---------------------------------------------------------------------------*/
Build  : _fbf00d6b-20230626 OPENFOAM=2306 version=2306
Arch   : "LSB;label=32;scalar=64"
Exec   : fireRADFoam_MaCFP
Date   : Mar 12 2024
Time   : 20:03:52
Host   : pop-os
PID    : 176084
I/O    : uncollated
Case   : /home/rafay/Desktop/Study/Radiative_Heat_Transfer/Local_copy_RHT2324/01_Projects/02_Rafay/Case_1_q1D_SolidAngle/new_case3/th_4-ph_8/tau_10/res_4
nProcs : 1
trapFpe: Floating point exception trapping enabled (FOAM_SIGFPE).
fileModificationChecking : Monitoring run-time modified files using timeStampMaster (fileModificationSkew 5, maxFileModificationPolls 20)
allowSystemOperations : Allowing user-supplied system call operations

// * * * * * * * * * * * * * * * * * * * * * * * * * * * * * * * * * * * * * //
Create time

Create mesh for time = 0


PIMPLE: no residual control data found. Calculations will employ 10 corrector loops

Reading thermophysical properties

Selecting thermodynamics package 
{
    type            hePsiThermo;
    mixture         singleStepReactingMixture;
    transport       sutherland;
    thermo          janaf;
    energy          sensibleEnthalpy;
    equationOfState perfectGas;
    specie          specie;
}

Selecting chemistryReader foamChemistryReader
    elements not defined in "/home/rafay/Desktop/Study/Radiative_Heat_Transfer/Local_copy_RHT2324/01_Projects/02_Rafay/Case_1_q1D_SolidAngle/new_case3/th_4-ph_8/tau_10/res_4/constant/reactions"
Fuel heat of combustion :47168962.4726
stoichiometric air-fuel ratio :14.6914056505
stoichiometric oxygen-fuel ratio :3.42181919285
Maximum products mass concentrations:
    H2O: 0.0818486943001
    CO2: 0.199950099979
    N2: 0.718201205721
Creating component thermo properties:
    multi-component carrier - 6 species
    no liquid components
    no solid components
Creating field rho


Reading field U

Reading/calculating face flux field phi

Selecting radiationModel fvDOM
Selecting absorptionEmissionModel constantAbsorptionEmission
Selecting scatterModel none
Selecting sootModel none
fvDOM : Allocated 128 rays with average orientation:
	I0 : dAve : 	(0.00274192284156 0.0278392098 0.0490873852123) : omega : 	0.0575094490319 : d : 	(0.0375095356919 0.38084070704 0.923879532511)
	I1 : dAve : 	(0.00812039796756 0.0267693645798 0.0490873852123) : omega : 	0.0575094490319 : d : 	(0.111087136655 0.366205212247 0.923879532511)
	I2 : dAve : 	(0.0131868107536 0.0246707876912 0.0490873852123) : omega : 	0.0575094490319 : d : 	(0.180395721254 0.337496656517 0.923879532511)
	I3 : dAve : 	(0.0177464617977 0.0216241262672 0.0490873852123) : omega : 	0.0575094490319 : d : 	(0.242771799453 0.295818293547 0.923879532511)
	I4 : dAve : 	(0.0216241262672 0.0177464617977 0.0490873852123) : omega : 	0.0575094490319 : d : 	(0.295818293547 0.242771799453 0.923879532511)
	I5 : dAve : 	(0.0246707876912 0.0131868107536 0.0490873852123) : omega : 	0.0575094490319 : d : 	(0.337496656517 0.180395721254 0.923879532511)
	I6 : dAve : 	(0.0267693645798 0.00812039796756 0.0490873852123) : omega : 	0.0575094490319 : d : 	(0.366205212247 0.111087136655 0.923879532511)
	I7 : dAve : 	(0.0278392098 0.00274192284156 0.0490873852123) : omega : 	0.0575094490319 : d : 	(0.38084070704 0.0375095356919 0.923879532511)
	I8 : dAve : 	(0.0278392098 -0.00274192284156 0.0490873852123) : omega : 	0.0575094490319 : d : 	(0.38084070704 -0.0375095356919 0.923879532511)
	I9 : dAve : 	(0.0267693645798 -0.00812039796756 0.0490873852123) : omega : 	0.0575094490319 : d : 	(0.366205212247 -0.111087136655 0.923879532511)
	I10 : dAve : 	(0.0246707876912 -0.0131868107536 0.0490873852123) : omega : 	0.0575094490319 : d : 	(0.337496656517 -0.180395721254 0.923879532511)
	I11 : dAve : 	(0.0216241262672 -0.0177464617977 0.0490873852123) : omega : 	0.0575094490319 : d : 	(0.295818293547 -0.242771799453 0.923879532511)
	I12 : dAve : 	(0.0177464617977 -0.0216241262672 0.0490873852123) : omega : 	0.0575094490319 : d : 	(0.242771799453 -0.295818293547 0.923879532511)
	I13 : dAve : 	(0.0131868107536 -0.0246707876912 0.0490873852123) : omega : 	0.0575094490319 : d : 	(0.180395721254 -0.337496656517 0.923879532511)
	I14 : dAve : 	(0.00812039796756 -0.0267693645798 0.0490873852123) : omega : 	0.0575094490319 : d : 	(0.111087136655 -0.366205212247 0.923879532511)
	I15 : dAve : 	(0.00274192284156 -0.0278392098 0.0490873852123) : omega : 	0.0575094490319 : d : 	(0.0375095356919 -0.38084070704 0.923879532511)
	I16 : dAve : 	(-0.00274192284156 -0.0278392098 0.0490873852123) : omega : 	0.0575094490319 : d : 	(-0.0375095356919 -0.38084070704 0.923879532511)
	I17 : dAve : 	(-0.00812039796756 -0.0267693645798 0.0490873852123) : omega : 	0.0575094490319 : d : 	(-0.111087136655 -0.366205212247 0.923879532511)
	I18 : dAve : 	(-0.0131868107536 -0.0246707876912 0.0490873852123) : omega : 	0.0575094490319 : d : 	(-0.180395721254 -0.337496656517 0.923879532511)
	I19 : dAve : 	(-0.0177464617977 -0.0216241262672 0.0490873852123) : omega : 	0.0575094490319 : d : 	(-0.242771799453 -0.295818293547 0.923879532511)
	I20 : dAve : 	(-0.0216241262672 -0.0177464617977 0.0490873852123) : omega : 	0.0575094490319 : d : 	(-0.295818293547 -0.242771799453 0.923879532511)
	I21 : dAve : 	(-0.0246707876912 -0.0131868107536 0.0490873852123) : omega : 	0.0575094490319 : d : 	(-0.337496656517 -0.180395721254 0.923879532511)
	I22 : dAve : 	(-0.0267693645798 -0.00812039796756 0.0490873852123) : omega : 	0.0575094490319 : d : 	(-0.366205212247 -0.111087136655 0.923879532511)
	I23 : dAve : 	(-0.0278392098 -0.00274192284156 0.0490873852123) : omega : 	0.0575094490319 : d : 	(-0.38084070704 -0.0375095356919 0.923879532511)
	I24 : dAve : 	(-0.0278392098 0.00274192284156 0.0490873852123) : omega : 	0.0575094490319 : d : 	(-0.38084070704 0.0375095356919 0.923879532511)
	I25 : dAve : 	(-0.0267693645798 0.00812039796756 0.0490873852123) : omega : 	0.0575094490319 : d : 	(-0.366205212247 0.111087136655 0.923879532511)
	I26 : dAve : 	(-0.0246707876912 0.0131868107536 0.0490873852123) : omega : 	0.0575094490319 : d : 	(-0.337496656517 0.180395721254 0.923879532511)
	I27 : dAve : 	(-0.0216241262672 0.0177464617977 0.0490873852123) : omega : 	0.0575094490319 : d : 	(-0.295818293547 0.242771799453 0.923879532511)
	I28 : dAve : 	(-0.0177464617977 0.0216241262672 0.0490873852123) : omega : 	0.0575094490319 : d : 	(-0.242771799453 0.295818293547 0.923879532511)
	I29 : dAve : 	(-0.0131868107536 0.0246707876912 0.0490873852123) : omega : 	0.0575094490319 : d : 	(-0.180395721254 0.337496656517 0.923879532511)
	I30 : dAve : 	(-0.00812039796756 0.0267693645798 0.0490873852123) : omega : 	0.0575094490319 : d : 	(-0.111087136655 0.366205212247 0.923879532511)
	I31 : dAve : 	(-0.00274192284156 0.0278392098 0.0490873852123) : omega : 	0.0575094490319 : d : 	(-0.0375095356919 0.38084070704 0.923879532511)
	I32 : dAve : 	(0.0123492826399 0.125384370808 0.0490873852123) : omega : 	0.138840091817 : d : 	(0.0905560297858 0.91943080004 0.382683432365)
	I33 : dAve : 	(0.0365732719135 0.120565919754 0.0490873852123) : omega : 	0.138840091817 : d : 	(0.268188071917 0.884097590017 0.382683432365)
	I34 : dAve : 	(0.059391770858 0.111114188018 0.0490873852123) : omega : 	0.138840091817 : d : 	(0.435513796846 0.814789005418 0.382683432365)
	I35 : dAve : 	(0.0799278773557 0.0973924003507 0.0490873852123) : omega : 	0.138840091817 : d : 	(0.586102970801 0.714168536279 0.382683432365)
	I36 : dAve : 	(0.0973924003507 0.0799278773557 0.0490873852123) : omega : 	0.138840091817 : d : 	(0.714168536279 0.586102970801 0.382683432365)
	I37 : dAve : 	(0.111114188018 0.059391770858 0.0490873852123) : omega : 	0.138840091817 : d : 	(0.814789005418 0.435513796846 0.382683432365)
	I38 : dAve : 	(0.120565919754 0.0365732719135 0.0490873852123) : omega : 	0.138840091817 : d : 	(0.884097590017 0.268188071917 0.382683432365)
	I39 : dAve : 	(0.125384370808 0.0123492826399 0.0490873852123) : omega : 	0.138840091817 : d : 	(0.91943080004 0.0905560297858 0.382683432365)
	I40 : dAve : 	(0.125384370808 -0.0123492826399 0.0490873852123) : omega : 	0.138840091817 : d : 	(0.91943080004 -0.0905560297858 0.382683432365)
	I41 : dAve : 	(0.120565919754 -0.0365732719135 0.0490873852123) : omega : 	0.138840091817 : d : 	(0.884097590017 -0.268188071917 0.382683432365)
	I42 : dAve : 	(0.111114188018 -0.059391770858 0.0490873852123) : omega : 	0.138840091817 : d : 	(0.814789005418 -0.435513796846 0.382683432365)
	I43 : dAve : 	(0.0973924003507 -0.0799278773557 0.0490873852123) : omega : 	0.138840091817 : d : 	(0.714168536279 -0.586102970801 0.382683432365)
	I44 : dAve : 	(0.0799278773557 -0.0973924003507 0.0490873852123) : omega : 	0.138840091817 : d : 	(0.586102970801 -0.714168536279 0.382683432365)
	I45 : dAve : 	(0.059391770858 -0.111114188018 0.0490873852123) : omega : 	0.138840091817 : d : 	(0.435513796846 -0.814789005418 0.382683432365)
	I46 : dAve : 	(0.0365732719135 -0.120565919754 0.0490873852123) : omega : 	0.138840091817 : d : 	(0.268188071917 -0.884097590017 0.382683432365)
	I47 : dAve : 	(0.0123492826399 -0.125384370808 0.0490873852123) : omega : 	0.138840091817 : d : 	(0.0905560297858 -0.91943080004 0.382683432365)
	I48 : dAve : 	(-0.0123492826399 -0.125384370808 0.0490873852123) : omega : 	0.138840091817 : d : 	(-0.0905560297858 -0.91943080004 0.382683432365)
	I49 : dAve : 	(-0.0365732719135 -0.120565919754 0.0490873852123) : omega : 	0.138840091817 : d : 	(-0.268188071917 -0.884097590017 0.382683432365)
	I50 : dAve : 	(-0.059391770858 -0.111114188018 0.0490873852123) : omega : 	0.138840091817 : d : 	(-0.435513796846 -0.814789005418 0.382683432365)
	I51 : dAve : 	(-0.0799278773557 -0.0973924003507 0.0490873852123) : omega : 	0.138840091817 : d : 	(-0.586102970801 -0.714168536279 0.382683432365)
	I52 : dAve : 	(-0.0973924003507 -0.0799278773557 0.0490873852123) : omega : 	0.138840091817 : d : 	(-0.714168536279 -0.586102970801 0.382683432365)
	I53 : dAve : 	(-0.111114188018 -0.059391770858 0.0490873852123) : omega : 	0.138840091817 : d : 	(-0.814789005418 -0.435513796846 0.382683432365)
	I54 : dAve : 	(-0.120565919754 -0.0365732719135 0.0490873852123) : omega : 	0.138840091817 : d : 	(-0.884097590017 -0.268188071917 0.382683432365)
	I55 : dAve : 	(-0.125384370808 -0.0123492826399 0.0490873852123) : omega : 	0.138840091817 : d : 	(-0.91943080004 -0.0905560297858 0.382683432365)
	I56 : dAve : 	(-0.125384370808 0.0123492826399 0.0490873852123) : omega : 	0.138840091817 : d : 	(-0.91943080004 0.0905560297858 0.382683432365)
	I57 : dAve : 	(-0.120565919754 0.0365732719135 0.0490873852123) : omega : 	0.138840091817 : d : 	(-0.884097590017 0.268188071917 0.382683432365)
	I58 : dAve : 	(-0.111114188018 0.059391770858 0.0490873852123) : omega : 	0.138840091817 : d : 	(-0.814789005418 0.435513796846 0.382683432365)
	I59 : dAve : 	(-0.0973924003507 0.0799278773557 0.0490873852123) : omega : 	0.138840091817 : d : 	(-0.714168536279 0.586102970801 0.382683432365)
	I60 : dAve : 	(-0.0799278773557 0.0973924003507 0.0490873852123) : omega : 	0.138840091817 : d : 	(-0.586102970801 0.714168536279 0.382683432365)
	I61 : dAve : 	(-0.059391770858 0.111114188018 0.0490873852123) : omega : 	0.138840091817 : d : 	(-0.435513796846 0.814789005418 0.382683432365)
	I62 : dAve : 	(-0.0365732719135 0.120565919754 0.0490873852123) : omega : 	0.138840091817 : d : 	(-0.268188071917 0.884097590017 0.382683432365)
	I63 : dAve : 	(-0.0123492826399 0.125384370808 0.0490873852123) : omega : 	0.138840091817 : d : 	(-0.0905560297858 0.91943080004 0.382683432365)
	I64 : dAve : 	(0.0123492826399 0.125384370808 -0.0490873852123) : omega : 	0.138840091817 : d : 	(0.0905560297858 0.91943080004 -0.382683432365)
	I65 : dAve : 	(0.0365732719135 0.120565919754 -0.0490873852123) : omega : 	0.138840091817 : d : 	(0.268188071917 0.884097590017 -0.382683432365)
	I66 : dAve : 	(0.059391770858 0.111114188018 -0.0490873852123) : omega : 	0.138840091817 : d : 	(0.435513796846 0.814789005418 -0.382683432365)
	I67 : dAve : 	(0.0799278773557 0.0973924003507 -0.0490873852123) : omega : 	0.138840091817 : d : 	(0.586102970801 0.714168536279 -0.382683432365)
	I68 : dAve : 	(0.0973924003507 0.0799278773557 -0.0490873852123) : omega : 	0.138840091817 : d : 	(0.714168536279 0.586102970801 -0.382683432365)
	I69 : dAve : 	(0.111114188018 0.059391770858 -0.0490873852123) : omega : 	0.138840091817 : d : 	(0.814789005418 0.435513796846 -0.382683432365)
	I70 : dAve : 	(0.120565919754 0.0365732719135 -0.0490873852123) : omega : 	0.138840091817 : d : 	(0.884097590017 0.268188071917 -0.382683432365)
	I71 : dAve : 	(0.125384370808 0.0123492826399 -0.0490873852123) : omega : 	0.138840091817 : d : 	(0.91943080004 0.0905560297858 -0.382683432365)
	I72 : dAve : 	(0.125384370808 -0.0123492826399 -0.0490873852123) : omega : 	0.138840091817 : d : 	(0.91943080004 -0.0905560297858 -0.382683432365)
	I73 : dAve : 	(0.120565919754 -0.0365732719135 -0.0490873852123) : omega : 	0.138840091817 : d : 	(0.884097590017 -0.268188071917 -0.382683432365)
	I74 : dAve : 	(0.111114188018 -0.059391770858 -0.0490873852123) : omega : 	0.138840091817 : d : 	(0.814789005418 -0.435513796846 -0.382683432365)
	I75 : dAve : 	(0.0973924003507 -0.0799278773557 -0.0490873852123) : omega : 	0.138840091817 : d : 	(0.714168536279 -0.586102970801 -0.382683432365)
	I76 : dAve : 	(0.0799278773557 -0.0973924003507 -0.0490873852123) : omega : 	0.138840091817 : d : 	(0.586102970801 -0.714168536279 -0.382683432365)
	I77 : dAve : 	(0.059391770858 -0.111114188018 -0.0490873852123) : omega : 	0.138840091817 : d : 	(0.435513796846 -0.814789005418 -0.382683432365)
	I78 : dAve : 	(0.0365732719135 -0.120565919754 -0.0490873852123) : omega : 	0.138840091817 : d : 	(0.268188071917 -0.884097590017 -0.382683432365)
	I79 : dAve : 	(0.0123492826399 -0.125384370808 -0.0490873852123) : omega : 	0.138840091817 : d : 	(0.0905560297858 -0.91943080004 -0.382683432365)
	I80 : dAve : 	(-0.0123492826399 -0.125384370808 -0.0490873852123) : omega : 	0.138840091817 : d : 	(-0.0905560297858 -0.91943080004 -0.382683432365)
	I81 : dAve : 	(-0.0365732719135 -0.120565919754 -0.0490873852123) : omega : 	0.138840091817 : d : 	(-0.268188071917 -0.884097590017 -0.382683432365)
	I82 : dAve : 	(-0.059391770858 -0.111114188018 -0.0490873852123) : omega : 	0.138840091817 : d : 	(-0.435513796846 -0.814789005418 -0.382683432365)
	I83 : dAve : 	(-0.0799278773557 -0.0973924003507 -0.0490873852123) : omega : 	0.138840091817 : d : 	(-0.586102970801 -0.714168536279 -0.382683432365)
	I84 : dAve : 	(-0.0973924003507 -0.0799278773557 -0.0490873852123) : omega : 	0.138840091817 : d : 	(-0.714168536279 -0.586102970801 -0.382683432365)
	I85 : dAve : 	(-0.111114188018 -0.059391770858 -0.0490873852123) : omega : 	0.138840091817 : d : 	(-0.814789005418 -0.435513796846 -0.382683432365)
	I86 : dAve : 	(-0.120565919754 -0.0365732719135 -0.0490873852123) : omega : 	0.138840091817 : d : 	(-0.884097590017 -0.268188071917 -0.382683432365)
	I87 : dAve : 	(-0.125384370808 -0.0123492826399 -0.0490873852123) : omega : 	0.138840091817 : d : 	(-0.91943080004 -0.0905560297858 -0.382683432365)
	I88 : dAve : 	(-0.125384370808 0.0123492826399 -0.0490873852123) : omega : 	0.138840091817 : d : 	(-0.91943080004 0.0905560297858 -0.382683432365)
	I89 : dAve : 	(-0.120565919754 0.0365732719135 -0.0490873852123) : omega : 	0.138840091817 : d : 	(-0.884097590017 0.268188071917 -0.382683432365)
	I90 : dAve : 	(-0.111114188018 0.059391770858 -0.0490873852123) : omega : 	0.138840091817 : d : 	(-0.814789005418 0.435513796846 -0.382683432365)
	I91 : dAve : 	(-0.0973924003507 0.0799278773557 -0.0490873852123) : omega : 	0.138840091817 : d : 	(-0.714168536279 0.586102970801 -0.382683432365)
	I92 : dAve : 	(-0.0799278773557 0.0973924003507 -0.0490873852123) : omega : 	0.138840091817 : d : 	(-0.586102970801 0.714168536279 -0.382683432365)
	I93 : dAve : 	(-0.059391770858 0.111114188018 -0.0490873852123) : omega : 	0.138840091817 : d : 	(-0.435513796846 0.814789005418 -0.382683432365)
	I94 : dAve : 	(-0.0365732719135 0.120565919754 -0.0490873852123) : omega : 	0.138840091817 : d : 	(-0.268188071917 0.884097590017 -0.382683432365)
	I95 : dAve : 	(-0.0123492826399 0.125384370808 -0.0490873852123) : omega : 	0.138840091817 : d : 	(-0.0905560297858 0.91943080004 -0.382683432365)
	I96 : dAve : 	(0.00274192284156 0.0278392098 -0.0490873852123) : omega : 	0.0575094490319 : d : 	(0.0375095356919 0.38084070704 -0.923879532511)
	I97 : dAve : 	(0.00812039796756 0.0267693645798 -0.0490873852123) : omega : 	0.0575094490319 : d : 	(0.111087136655 0.366205212247 -0.923879532511)
	I98 : dAve : 	(0.0131868107536 0.0246707876912 -0.0490873852123) : omega : 	0.0575094490319 : d : 	(0.180395721254 0.337496656517 -0.923879532511)
	I99 : dAve : 	(0.0177464617977 0.0216241262672 -0.0490873852123) : omega : 	0.0575094490319 : d : 	(0.242771799453 0.295818293547 -0.923879532511)
	I100 : dAve : 	(0.0216241262672 0.0177464617977 -0.0490873852123) : omega : 	0.0575094490319 : d : 	(0.295818293547 0.242771799453 -0.923879532511)
	I101 : dAve : 	(0.0246707876912 0.0131868107536 -0.0490873852123) : omega : 	0.0575094490319 : d : 	(0.337496656517 0.180395721254 -0.923879532511)
	I102 : dAve : 	(0.0267693645798 0.00812039796756 -0.0490873852123) : omega : 	0.0575094490319 : d : 	(0.366205212247 0.111087136655 -0.923879532511)
	I103 : dAve : 	(0.0278392098 0.00274192284156 -0.0490873852123) : omega : 	0.0575094490319 : d : 	(0.38084070704 0.0375095356919 -0.923879532511)
	I104 : dAve : 	(0.0278392098 -0.00274192284156 -0.0490873852123) : omega : 	0.0575094490319 : d : 	(0.38084070704 -0.0375095356919 -0.923879532511)
	I105 : dAve : 	(0.0267693645798 -0.00812039796756 -0.0490873852123) : omega : 	0.0575094490319 : d : 	(0.366205212247 -0.111087136655 -0.923879532511)
	I106 : dAve : 	(0.0246707876912 -0.0131868107536 -0.0490873852123) : omega : 	0.0575094490319 : d : 	(0.337496656517 -0.180395721254 -0.923879532511)
	I107 : dAve : 	(0.0216241262672 -0.0177464617977 -0.0490873852123) : omega : 	0.0575094490319 : d : 	(0.295818293547 -0.242771799453 -0.923879532511)
	I108 : dAve : 	(0.0177464617977 -0.0216241262672 -0.0490873852123) : omega : 	0.0575094490319 : d : 	(0.242771799453 -0.295818293547 -0.923879532511)
	I109 : dAve : 	(0.0131868107536 -0.0246707876912 -0.0490873852123) : omega : 	0.0575094490319 : d : 	(0.180395721254 -0.337496656517 -0.923879532511)
	I110 : dAve : 	(0.00812039796756 -0.0267693645798 -0.0490873852123) : omega : 	0.0575094490319 : d : 	(0.111087136655 -0.366205212247 -0.923879532511)
	I111 : dAve : 	(0.00274192284156 -0.0278392098 -0.0490873852123) : omega : 	0.0575094490319 : d : 	(0.0375095356919 -0.38084070704 -0.923879532511)
	I112 : dAve : 	(-0.00274192284156 -0.0278392098 -0.0490873852123) : omega : 	0.0575094490319 : d : 	(-0.0375095356919 -0.38084070704 -0.923879532511)
	I113 : dAve : 	(-0.00812039796756 -0.0267693645798 -0.0490873852123) : omega : 	0.0575094490319 : d : 	(-0.111087136655 -0.366205212247 -0.923879532511)
	I114 : dAve : 	(-0.0131868107536 -0.0246707876912 -0.0490873852123) : omega : 	0.0575094490319 : d : 	(-0.180395721254 -0.337496656517 -0.923879532511)
	I115 : dAve : 	(-0.0177464617977 -0.0216241262672 -0.0490873852123) : omega : 	0.0575094490319 : d : 	(-0.242771799453 -0.295818293547 -0.923879532511)
	I116 : dAve : 	(-0.0216241262672 -0.0177464617977 -0.0490873852123) : omega : 	0.0575094490319 : d : 	(-0.295818293547 -0.242771799453 -0.923879532511)
	I117 : dAve : 	(-0.0246707876912 -0.0131868107536 -0.0490873852123) : omega : 	0.0575094490319 : d : 	(-0.337496656517 -0.180395721254 -0.923879532511)
	I118 : dAve : 	(-0.0267693645798 -0.00812039796756 -0.0490873852123) : omega : 	0.0575094490319 : d : 	(-0.366205212247 -0.111087136655 -0.923879532511)
	I119 : dAve : 	(-0.0278392098 -0.00274192284156 -0.0490873852123) : omega : 	0.0575094490319 : d : 	(-0.38084070704 -0.0375095356919 -0.923879532511)
	I120 : dAve : 	(-0.0278392098 0.00274192284156 -0.0490873852123) : omega : 	0.0575094490319 : d : 	(-0.38084070704 0.0375095356919 -0.923879532511)
	I121 : dAve : 	(-0.0267693645798 0.00812039796756 -0.0490873852123) : omega : 	0.0575094490319 : d : 	(-0.366205212247 0.111087136655 -0.923879532511)
	I122 : dAve : 	(-0.0246707876912 0.0131868107536 -0.0490873852123) : omega : 	0.0575094490319 : d : 	(-0.337496656517 0.180395721254 -0.923879532511)
	I123 : dAve : 	(-0.0216241262672 0.0177464617977 -0.0490873852123) : omega : 	0.0575094490319 : d : 	(-0.295818293547 0.242771799453 -0.923879532511)
	I124 : dAve : 	(-0.0177464617977 0.0216241262672 -0.0490873852123) : omega : 	0.0575094490319 : d : 	(-0.242771799453 0.295818293547 -0.923879532511)
	I125 : dAve : 	(-0.0131868107536 0.0246707876912 -0.0490873852123) : omega : 	0.0575094490319 : d : 	(-0.180395721254 0.337496656517 -0.923879532511)
	I126 : dAve : 	(-0.00812039796756 0.0267693645798 -0.0490873852123) : omega : 	0.0575094490319 : d : 	(-0.111087136655 0.366205212247 -0.923879532511)
	I127 : dAve : 	(-0.00274192284156 0.0278392098 -0.0490873852123) : omega : 	0.0575094490319 : d : 	(-0.0375095356919 0.38084070704 -0.923879532511)
Total omega : 12.5663706144

Courant Number mean: 0 max: 0

Starting time loop

Sampled set:
    data -> csv

Sampled set:
    data -> csv

Sampled surface:
    yNormal -> ensight
        sampledCuttingPlane: yNormal : plane:(0 1 0) (0 0 0) offsets:(0)

Sampled surface:
    zNormal -> ensight
        sampledCuttingPlane: zNormal : plane:(0 0 1) (0 0 0) offsets:(0)

Sampled surface:
    patchAll -> ensight
        sampledPatch: patchAll : patches:(".*WW.*")

deltaT = 1
Time = 1

PIMPLE: iteration 1
Radiation solver iter: 0
DILUPBiCGStab:  Solving for ILambda_0_0, Initial residual = 1, Final residual = 9.86711370049e-64, No Iterations 2
DILUPBiCGStab:  Solving for ILambda_1_0, Initial residual = 1, Final residual = 5.23861095012e-64, No Iterations 2
DILUPBiCGStab:  Solving for ILambda_2_0, Initial residual = 1, Final residual = 5.17417001664e-64, No Iterations 2
DILUPBiCGStab:  Solving for ILambda_3_0, Initial residual = 1, Final residual = 5.20229443185e-64, No Iterations 2
DILUPBiCGStab:  Solving for ILambda_4_0, Initial residual = 1, Final residual = 5.02704985849e-64, No Iterations 2
DILUPBiCGStab:  Solving for ILambda_5_0, Initial residual = 1, Final residual = 5.16514712686e-64, No Iterations 2
DILUPBiCGStab:  Solving for ILambda_6_0, Initial residual = 1, Final residual = 9.09362136701e-64, No Iterations 2
DILUPBiCGStab:  Solving for ILambda_7_0, Initial residual = 1, Final residual = 8.04624531403e-64, No Iterations 2
DILUPBiCGStab:  Solving for ILambda_8_0, Initial residual = 1, Final residual = 6.67659875653e-62, No Iterations 18
DILUPBiCGStab:  Solving for ILambda_9_0, Initial residual = 1, Final residual = 2.39145556272e-61, No Iterations 24
DILUPBiCGStab:  Solving for ILambda_10_0, Initial residual = 1, Final residual = 2.15983370773e-61, No Iterations 27
DILUPBiCGStab:  Solving for ILambda_11_0, Initial residual = 1, Final residual = 7.22217317365e-61, No Iterations 29
DILUPBiCGStab:  Solving for ILambda_12_0, Initial residual = 1, Final residual = 1.30563996201e-61, No Iterations 29
DILUPBiCGStab:  Solving for ILambda_13_0, Initial residual = 1, Final residual = 8.24228370628e-61, No Iterations 28
DILUPBiCGStab:  Solving for ILambda_14_0, Initial residual = 1, Final residual = 6.07589893788e-61, No Iterations 25
DILUPBiCGStab:  Solving for ILambda_15_0, Initial residual = 1, Final residual = 2.41568744601e-62, No Iterations 21
DILUPBiCGStab:  Solving for ILambda_16_0, Initial residual = 1, Final residual = 1.98176548025e-62, No Iterations 22
DILUPBiCGStab:  Solving for ILambda_17_0, Initial residual = 1, Final residual = 3.61605073086e-61, No Iterations 21
DILUPBiCGStab:  Solving for ILambda_18_0, Initial residual = 1, Final residual = 3.11613012928e-61, No Iterations 22
DILUPBiCGStab:  Solving for ILambda_19_0, Initial residual = 1, Final residual = 3.3292800421e-61, No Iterations 22
DILUPBiCGStab:  Solving for ILambda_20_0, Initial residual = 1, Final residual = 3.86463954717e-61, No Iterations 22
DILUPBiCGStab:  Solving for ILambda_21_0, Initial residual = 1, Final residual = 2.84727169018e-61, No Iterations 22
DILUPBiCGStab:  Solving for ILambda_22_0, Initial residual = 1, Final residual = 3.03870948587e-62, No Iterations 21
DILUPBiCGStab:  Solving for ILambda_23_0, Initial residual = 1, Final residual = 7.28675613291e-62, No Iterations 22
DILUPBiCGStab:  Solving for ILambda_24_0, Initial residual = 1, Final residual = 3.96829675885e-62, No Iterations 21
DILUPBiCGStab:  Solving for ILambda_25_0, Initial residual = 1, Final residual = 2.15303065551e-61, No Iterations 25
DILUPBiCGStab:  Solving for ILambda_26_0, Initial residual = 1, Final residual = 8.25173105374e-61, No Iterations 28
DILUPBiCGStab:  Solving for ILambda_27_0, Initial residual = 1, Final residual = 1.06674247166e-61, No Iterations 29
DILUPBiCGStab:  Solving for ILambda_28_0, Initial residual = 1, Final residual = 1.67475425381e-61, No Iterations 29
DILUPBiCGStab:  Solving for ILambda_29_0, Initial residual = 1, Final residual = 2.33184151727e-62, No Iterations 28
DILUPBiCGStab:  Solving for ILambda_30_0, Initial residual = 1, Final residual = 8.07572335266e-62, No Iterations 24
DILUPBiCGStab:  Solving for ILambda_31_0, Initial residual = 1, Final residual = 6.40399143478e-62, No Iterations 18
DILUPBiCGStab:  Solving for ILambda_32_0, Initial residual = 1, Final residual = 7.53397470854e-64, No Iterations 2
DILUPBiCGStab:  Solving for ILambda_33_0, Initial residual = 1, Final residual = 1.69841891899e-63, No Iterations 2
DILUPBiCGStab:  Solving for ILambda_34_0, Initial residual = 1, Final residual = 1.13203553268e-63, No Iterations 2
DILUPBiCGStab:  Solving for ILambda_35_0, Initial residual = 1, Final residual = 7.66850430302e-64, No Iterations 2
DILUPBiCGStab:  Solving for ILambda_36_0, Initial residual = 1, Final residual = 7.15351777798e-64, No Iterations 2
DILUPBiCGStab:  Solving for ILambda_37_0, Initial residual = 1, Final residual = 8.24448088252e-64, No Iterations 2
DILUPBiCGStab:  Solving for ILambda_38_0, Initial residual = 1, Final residual = 5.81911335277e-64, No Iterations 2
DILUPBiCGStab:  Solving for ILambda_39_0, Initial residual = 1, Final residual = 4.75848234058e-64, No Iterations 2
DILUPBiCGStab:  Solving for ILambda_40_0, Initial residual = 1, Final residual = 9.58096607917e-61, No Iterations 23
DILUPBiCGStab:  Solving for ILambda_41_0, Initial residual = 1, Final residual = 3.47841439837e-61, No Iterations 33
DILUPBiCGStab:  Solving for ILambda_42_0, Initial residual = 1, Final residual = 3.74917032298e-63, No Iterations 40
DILUPBiCGStab:  Solving for ILambda_43_0, Initial residual = 1, Final residual = 5.27330637332e-61, No Iterations 42
DILUPBiCGStab:  Solving for ILambda_44_0, Initial residual = 1, Final residual = 8.02090221145e-62, No Iterations 42
DILUPBiCGStab:  Solving for ILambda_45_0, Initial residual = 1, Final residual = 3.39337901635e-61, No Iterations 39
DILUPBiCGStab:  Solving for ILambda_46_0, Initial residual = 1, Final residual = 2.48503363906e-61, No Iterations 34
DILUPBiCGStab:  Solving for ILambda_47_0, Initial residual = 1, Final residual = 5.50322647852e-62, No Iterations 27
DILUPBiCGStab:  Solving for ILambda_48_0, Initial residual = 1, Final residual = 8.8786787077e-62, No Iterations 20
DILUPBiCGStab:  Solving for ILambda_49_0, Initial residual = 1, Final residual = 2.23687274332e-62, No Iterations 21
DILUPBiCGStab:  Solving for ILambda_50_0, Initial residual = 1, Final residual = 4.82479335057e-62, No Iterations 22
DILUPBiCGStab:  Solving for ILambda_51_0, Initial residual = 1, Final residual = 3.39138196213e-62, No Iterations 22
DILUPBiCGStab:  Solving for ILambda_52_0, Initial residual = 1, Final residual = 2.35118545452e-61, No Iterations 22
DILUPBiCGStab:  Solving for ILambda_53_0, Initial residual = 1, Final residual = 9.83928192597e-62, No Iterations 21
DILUPBiCGStab:  Solving for ILambda_54_0, Initial residual = 1, Final residual = 2.59260563638e-61, No Iterations 21
DILUPBiCGStab:  Solving for ILambda_55_0, Initial residual = 1, Final residual = 2.29939630989e-62, No Iterations 20
DILUPBiCGStab:  Solving for ILambda_56_0, Initial residual = 1, Final residual = 7.44651852153e-62, No Iterations 27
DILUPBiCGStab:  Solving for ILambda_57_0, Initial residual = 1, Final residual = 4.4081057903e-61, No Iterations 34
DILUPBiCGStab:  Solving for ILambda_58_0, Initial residual = 1, Final residual = 8.49497973547e-61, No Iterations 38
DILUPBiCGStab:  Solving for ILambda_59_0, Initial residual = 1, Final residual = 4.39441271398e-61, No Iterations 41
DILUPBiCGStab:  Solving for ILambda_60_0, Initial residual = 1, Final residual = 5.27248270353e-61, No Iterations 42
DILUPBiCGStab:  Solving for ILambda_61_0, Initial residual = 1, Final residual = 2.13522435532e-62, No Iterations 39
DILUPBiCGStab:  Solving for ILambda_62_0, Initial residual = 1, Final residual = 7.51274537293e-61, No Iterations 33
DILUPBiCGStab:  Solving for ILambda_63_0, Initial residual = 1, Final residual = 4.99324768083e-62, No Iterations 24
DILUPBiCGStab:  Solving for ILambda_64_0, Initial residual = 1, Final residual = 1.19075109406e-61, No Iterations 21
DILUPBiCGStab:  Solving for ILambda_65_0, Initial residual = 1, Final residual = 1.61660940751e-61, No Iterations 21
DILUPBiCGStab:  Solving for ILambda_66_0, Initial residual = 1, Final residual = 2.29029929127e-61, No Iterations 21
DILUPBiCGStab:  Solving for ILambda_67_0, Initial residual = 1, Final residual = 7.50642337926e-63, No Iterations 21
DILUPBiCGStab:  Solving for ILambda_68_0, Initial residual = 1, Final residual = 2.6657807558e-61, No Iterations 20
DILUPBiCGStab:  Solving for ILambda_69_0, Initial residual = 1, Final residual = 6.57816090635e-61, No Iterations 20
DILUPBiCGStab:  Solving for ILambda_70_0, Initial residual = 1, Final residual = 9.80310889641e-61, No Iterations 21
DILUPBiCGStab:  Solving for ILambda_71_0, Initial residual = 1, Final residual = 3.34133641546e-62, No Iterations 21
DILUPBiCGStab:  Solving for ILambda_72_0, Initial residual = 1, Final residual = 9.23238645875e-61, No Iterations 26
DILUPBiCGStab:  Solving for ILambda_73_0, Initial residual = 1, Final residual = 3.55904900089e-61, No Iterations 34
DILUPBiCGStab:  Solving for ILambda_74_0, Initial residual = 1, Final residual = 2.37902140741e-61, No Iterations 38
DILUPBiCGStab:  Solving for ILambda_75_0, Initial residual = 1, Final residual = 1.22937258837e-61, No Iterations 42
DILUPBiCGStab:  Solving for ILambda_76_0, Initial residual = 1, Final residual = 2.68290864823e-61, No Iterations 42
DILUPBiCGStab:  Solving for ILambda_77_0, Initial residual = 1, Final residual = 8.41748922322e-62, No Iterations 39
DILUPBiCGStab:  Solving for ILambda_78_0, Initial residual = 1, Final residual = 1.29207540047e-61, No Iterations 33
DILUPBiCGStab:  Solving for ILambda_79_0, Initial residual = 1, Final residual = 9.18001013527e-62, No Iterations 24
DILUPBiCGStab:  Solving for ILambda_80_0, Initial residual = 1, Final residual = 5.7089230506e-64, No Iterations 2
DILUPBiCGStab:  Solving for ILambda_81_0, Initial residual = 1, Final residual = 9.88017384164e-64, No Iterations 2
DILUPBiCGStab:  Solving for ILambda_82_0, Initial residual = 1, Final residual = 8.43684560707e-64, No Iterations 2
DILUPBiCGStab:  Solving for ILambda_83_0, Initial residual = 1, Final residual = 7.69498755953e-64, No Iterations 2
DILUPBiCGStab:  Solving for ILambda_84_0, Initial residual = 1, Final residual = 7.48714678338e-64, No Iterations 2
DILUPBiCGStab:  Solving for ILambda_85_0, Initial residual = 1, Final residual = 6.34698721961e-64, No Iterations 2
DILUPBiCGStab:  Solving for ILambda_86_0, Initial residual = 1, Final residual = 8.99718083089e-64, No Iterations 2
DILUPBiCGStab:  Solving for ILambda_87_0, Initial residual = 1, Final residual = 4.67676872922e-64, No Iterations 2
DILUPBiCGStab:  Solving for ILambda_88_0, Initial residual = 1, Final residual = 9.05348060564e-62, No Iterations 24
DILUPBiCGStab:  Solving for ILambda_89_0, Initial residual = 1, Final residual = 4.785510817e-61, No Iterations 33
DILUPBiCGStab:  Solving for ILambda_90_0, Initial residual = 1, Final residual = 4.15617988407e-62, No Iterations 39
DILUPBiCGStab:  Solving for ILambda_91_0, Initial residual = 1, Final residual = 7.51254469984e-61, No Iterations 42
DILUPBiCGStab:  Solving for ILambda_92_0, Initial residual = 1, Final residual = 5.45911649122e-62, No Iterations 42
DILUPBiCGStab:  Solving for ILambda_93_0, Initial residual = 1, Final residual = 1.4389868228e-61, No Iterations 39
DILUPBiCGStab:  Solving for ILambda_94_0, Initial residual = 1, Final residual = 4.43719354164e-61, No Iterations 34
DILUPBiCGStab:  Solving for ILambda_95_0, Initial residual = 1, Final residual = 7.1207572632e-61, No Iterations 26
DILUPBiCGStab:  Solving for ILambda_96_0, Initial residual = 1, Final residual = 2.89407689356e-62, No Iterations 20
DILUPBiCGStab:  Solving for ILambda_97_0, Initial residual = 1, Final residual = 5.95518756812e-61, No Iterations 21
DILUPBiCGStab:  Solving for ILambda_98_0, Initial residual = 1, Final residual = 7.84569394013e-62, No Iterations 21
DILUPBiCGStab:  Solving for ILambda_99_0, Initial residual = 1, Final residual = 5.14356861792e-61, No Iterations 21
DILUPBiCGStab:  Solving for ILambda_100_0, Initial residual = 1, Final residual = 2.0190068864e-61, No Iterations 21
DILUPBiCGStab:  Solving for ILambda_101_0, Initial residual = 1, Final residual = 3.89150039259e-61, No Iterations 21
DILUPBiCGStab:  Solving for ILambda_102_0, Initial residual = 1, Final residual = 1.37063080791e-62, No Iterations 21
DILUPBiCGStab:  Solving for ILambda_103_0, Initial residual = 1, Final residual = 1.86868498566e-61, No Iterations 20
DILUPBiCGStab:  Solving for ILambda_104_0, Initial residual = 1, Final residual = 2.31069900601e-61, No Iterations 21
DILUPBiCGStab:  Solving for ILambda_105_0, Initial residual = 1, Final residual = 7.49485320705e-63, No Iterations 26
DILUPBiCGStab:  Solving for ILambda_106_0, Initial residual = 1, Final residual = 8.3829823131e-61, No Iterations 28
DILUPBiCGStab:  Solving for ILambda_107_0, Initial residual = 1, Final residual = 2.76009143641e-61, No Iterations 29
DILUPBiCGStab:  Solving for ILambda_108_0, Initial residual = 1, Final residual = 2.75016174938e-61, No Iterations 29
DILUPBiCGStab:  Solving for ILambda_109_0, Initial residual = 1, Final residual = 6.31416312908e-62, No Iterations 28
DILUPBiCGStab:  Solving for ILambda_110_0, Initial residual = 1, Final residual = 1.31211726835e-61, No Iterations 24
DILUPBiCGStab:  Solving for ILambda_111_0, Initial residual = 1, Final residual = 1.0107985666e-61, No Iterations 18
DILUPBiCGStab:  Solving for ILambda_112_0, Initial residual = 1, Final residual = 7.08693199531e-64, No Iterations 2
DILUPBiCGStab:  Solving for ILambda_113_0, Initial residual = 1, Final residual = 1.69164054749e-63, No Iterations 2
DILUPBiCGStab:  Solving for ILambda_114_0, Initial residual = 1, Final residual = 1.75940449285e-63, No Iterations 2
DILUPBiCGStab:  Solving for ILambda_115_0, Initial residual = 1, Final residual = 5.05510988435e-64, No Iterations 2
DILUPBiCGStab:  Solving for ILambda_116_0, Initial residual = 1, Final residual = 4.92961703816e-64, No Iterations 2
DILUPBiCGStab:  Solving for ILambda_117_0, Initial residual = 1, Final residual = 9.13507485712e-64, No Iterations 2
DILUPBiCGStab:  Solving for ILambda_118_0, Initial residual = 1, Final residual = 4.75954156842e-64, No Iterations 2
DILUPBiCGStab:  Solving for ILambda_119_0, Initial residual = 1, Final residual = 4.5291233881e-64, No Iterations 2
DILUPBiCGStab:  Solving for ILambda_120_0, Initial residual = 1, Final residual = 1.02023849764e-61, No Iterations 18
DILUPBiCGStab:  Solving for ILambda_121_0, Initial residual = 1, Final residual = 1.22324722035e-61, No Iterations 24
DILUPBiCGStab:  Solving for ILambda_122_0, Initial residual = 1, Final residual = 6.19256829088e-61, No Iterations 27
DILUPBiCGStab:  Solving for ILambda_123_0, Initial residual = 1, Final residual = 4.231614175e-61, No Iterations 29
DILUPBiCGStab:  Solving for ILambda_124_0, Initial residual = 1, Final residual = 2.61629517895e-61, No Iterations 29
DILUPBiCGStab:  Solving for ILambda_125_0, Initial residual = 1, Final residual = 8.97719319556e-61, No Iterations 28
DILUPBiCGStab:  Solving for ILambda_126_0, Initial residual = 1, Final residual = 6.43732672841e-63, No Iterations 26
DILUPBiCGStab:  Solving for ILambda_127_0, Initial residual = 1, Final residual = 1.09951608131e-61, No Iterations 21
Radiation solver iter: 1
DILUPBiCGStab:  Solving for ILambda_0_0, Initial residual = 5.31108699055e-16, Final residual = 1.04140623825e-63, No Iterations 2
DILUPBiCGStab:  Solving for ILambda_1_0, Initial residual = 5.38565127121e-16, Final residual = 1.04766340192e-63, No Iterations 2
DILUPBiCGStab:  Solving for ILambda_2_0, Initial residual = 5.56926105351e-16, Final residual = 1.06876016819e-63, No Iterations 2
DILUPBiCGStab:  Solving for ILambda_3_0, Initial residual = 5.63218656243e-16, Final residual = 1.03418753394e-63, No Iterations 2
DILUPBiCGStab:  Solving for ILambda_4_0, Initial residual = 5.63273043027e-16, Final residual = 1.00417057987e-63, No Iterations 2
DILUPBiCGStab:  Solving for ILambda_5_0, Initial residual = 5.64426042844e-16, Final residual = 1.04402102314e-63, No Iterations 2
DILUPBiCGStab:  Solving for ILambda_6_0, Initial residual = 5.34002075956e-16, Final residual = 9.56579979477e-64, No Iterations 2
DILUPBiCGStab:  Solving for ILambda_7_0, Initial residual = 5.26317223397e-16, Final residual = 9.2307887594e-64, No Iterations 2
DILUPBiCGStab:  Solving for ILambda_8_0, Initial residual = 8.95723136695e-16, Final residual = 1.23610476434e-61, No Iterations 14
DILUPBiCGStab:  Solving for ILambda_9_0, Initial residual = 1.12589888333e-15, Final residual = 4.7071238936e-62, No Iterations 18
DILUPBiCGStab:  Solving for ILambda_10_0, Initial residual = 1.14117069223e-15, Final residual = 4.8486500637e-61, No Iterations 20
DILUPBiCGStab:  Solving for ILambda_11_0, Initial residual = 1.17404206439e-15, Final residual = 4.39610394064e-61, No Iterations 21
DILUPBiCGStab:  Solving for ILambda_12_0, Initial residual = 1.11241639961e-15, Final residual = 2.60667745881e-61, No Iterations 21
DILUPBiCGStab:  Solving for ILambda_13_0, Initial residual = 1.23043572057e-15, Final residual = 1.53223032995e-61, No Iterations 21
DILUPBiCGStab:  Solving for ILambda_14_0, Initial residual = 1.21205842631e-15, Final residual = 2.37659853961e-61, No Iterations 19
DILUPBiCGStab:  Solving for ILambda_15_0, Initial residual = 1.16440472629e-15, Final residual = 4.58501367216e-61, No Iterations 17
DILUPBiCGStab:  Solving for ILambda_16_0, Initial residual = 1.24035586995e-15, Final residual = 2.43485811273e-61, No Iterations 15
DILUPBiCGStab:  Solving for ILambda_17_0, Initial residual = 1.11067602252e-15, Final residual = 3.11946705308e-62, No Iterations 16
DILUPBiCGStab:  Solving for ILambda_18_0, Initial residual = 1.15566477013e-15, Final residual = 4.67326828548e-61, No Iterations 15
DILUPBiCGStab:  Solving for ILambda_19_0, Initial residual = 1.24786124612e-15, Final residual = 1.36211660818e-61, No Iterations 16
DILUPBiCGStab:  Solving for ILambda_20_0, Initial residual = 1.18384800152e-15, Final residual = 1.82328360073e-61, No Iterations 16
DILUPBiCGStab:  Solving for ILambda_21_0, Initial residual = 1.1211237237e-15, Final residual = 9.59297165861e-62, No Iterations 15
DILUPBiCGStab:  Solving for ILambda_22_0, Initial residual = 1.10828300403e-15, Final residual = 6.21106037947e-61, No Iterations 16
DILUPBiCGStab:  Solving for ILambda_23_0, Initial residual = 1.11234569679e-15, Final residual = 1.15533821061e-61, No Iterations 15
DILUPBiCGStab:  Solving for ILambda_24_0, Initial residual = 1.09911883096e-15, Final residual = 3.71746740136e-61, No Iterations 17
DILUPBiCGStab:  Solving for ILambda_25_0, Initial residual = 1.20776730906e-15, Final residual = 4.19273518011e-61, No Iterations 19
DILUPBiCGStab:  Solving for ILambda_26_0, Initial residual = 1.14715323846e-15, Final residual = 2.48013067668e-61, No Iterations 21
DILUPBiCGStab:  Solving for ILambda_27_0, Initial residual = 1.08999272862e-15, Final residual = 2.23585940382e-61, No Iterations 21
DILUPBiCGStab:  Solving for ILambda_28_0, Initial residual = 1.14319388059e-15, Final residual = 7.91338802564e-61, No Iterations 21
DILUPBiCGStab:  Solving for ILambda_29_0, Initial residual = 1.08133979131e-15, Final residual = 8.09704058622e-61, No Iterations 20
DILUPBiCGStab:  Solving for ILambda_30_0, Initial residual = 1.17175781947e-15, Final residual = 5.01804150116e-62, No Iterations 18
DILUPBiCGStab:  Solving for ILambda_31_0, Initial residual = 8.43577088335e-16, Final residual = 2.14691812462e-62, No Iterations 14
DILUPBiCGStab:  Solving for ILambda_32_0, Initial residual = 1.35064139025e-15, Final residual = 2.95292783207e-63, No Iterations 2
DILUPBiCGStab:  Solving for ILambda_33_0, Initial residual = 1.33997070326e-15, Final residual = 2.85509631683e-63, No Iterations 2
DILUPBiCGStab:  Solving for ILambda_34_0, Initial residual = 1.43033978331e-15, Final residual = 3.0530741821e-63, No Iterations 2
DILUPBiCGStab:  Solving for ILambda_35_0, Initial residual = 1.57518266607e-15, Final residual = 3.48768248361e-63, No Iterations 2
DILUPBiCGStab:  Solving for ILambda_36_0, Initial residual = 1.47357727647e-15, Final residual = 3.16035151278e-63, No Iterations 2
DILUPBiCGStab:  Solving for ILambda_37_0, Initial residual = 1.48291004858e-15, Final residual = 3.05219850164e-63, No Iterations 2
DILUPBiCGStab:  Solving for ILambda_38_0, Initial residual = 1.37268979242e-15, Final residual = 2.83398860141e-63, No Iterations 2
DILUPBiCGStab:  Solving for ILambda_39_0, Initial residual = 1.38058675344e-15, Final residual = 2.57651548413e-63, No Iterations 2
DILUPBiCGStab:  Solving for ILambda_40_0, Initial residual = 2.29776547637e-15, Final residual = 3.62475862573e-61, No Iterations 18
DILUPBiCGStab:  Solving for ILambda_41_0, Initial residual = 2.70813551526e-15, Final residual = 3.14682839815e-61, No Iterations 24
DILUPBiCGStab:  Solving for ILambda_42_0, Initial residual = 2.8510966153e-15, Final residual = 3.08744475028e-61, No Iterations 28
DILUPBiCGStab:  Solving for ILambda_43_0, Initial residual = 3.10001404765e-15, Final residual = 1.24775588126e-61, No Iterations 30
DILUPBiCGStab:  Solving for ILambda_44_0, Initial residual = 3.06472790228e-15, Final residual = 4.59523426776e-61, No Iterations 30
DILUPBiCGStab:  Solving for ILambda_45_0, Initial residual = 2.98709620701e-15, Final residual = 1.41748500336e-61, No Iterations 29
DILUPBiCGStab:  Solving for ILambda_46_0, Initial residual = 2.93152379127e-15, Final residual = 4.15600340506e-61, No Iterations 26
DILUPBiCGStab:  Solving for ILambda_47_0, Initial residual = 2.68680501864e-15, Final residual = 6.64155306946e-62, No Iterations 22
DILUPBiCGStab:  Solving for ILambda_48_0, Initial residual = 2.60949964406e-15, Final residual = 6.8333215277e-61, No Iterations 16
DILUPBiCGStab:  Solving for ILambda_49_0, Initial residual = 2.89312672187e-15, Final residual = 1.50521331116e-61, No Iterations 15
DILUPBiCGStab:  Solving for ILambda_50_0, Initial residual = 3.00791546787e-15, Final residual = 8.3504342791e-62, No Iterations 16
DILUPBiCGStab:  Solving for ILambda_51_0, Initial residual = 2.93318802685e-15, Final residual = 1.57769424946e-61, No Iterations 15
DILUPBiCGStab:  Solving for ILambda_52_0, Initial residual = 2.93611403583e-15, Final residual = 7.28152206166e-61, No Iterations 16
DILUPBiCGStab:  Solving for ILambda_53_0, Initial residual = 2.79938566121e-15, Final residual = 1.78854320917e-62, No Iterations 17
DILUPBiCGStab:  Solving for ILambda_54_0, Initial residual = 2.71593458007e-15, Final residual = 5.1988627922e-61, No Iterations 15
DILUPBiCGStab:  Solving for ILambda_55_0, Initial residual = 2.49898569927e-15, Final residual = 1.86317863118e-61, No Iterations 15
DILUPBiCGStab:  Solving for ILambda_56_0, Initial residual = 2.71898023996e-15, Final residual = 6.19835992273e-61, No Iterations 21
DILUPBiCGStab:  Solving for ILambda_57_0, Initial residual = 2.95525818374e-15, Final residual = 1.92175930735e-61, No Iterations 26
DILUPBiCGStab:  Solving for ILambda_58_0, Initial residual = 2.9335796117e-15, Final residual = 7.95867919592e-61, No Iterations 28
DILUPBiCGStab:  Solving for ILambda_59_0, Initial residual = 3.07325574999e-15, Final residual = 1.6683147036e-61, No Iterations 30
DILUPBiCGStab:  Solving for ILambda_60_0, Initial residual = 3.04915152739e-15, Final residual = 2.43266707258e-61, No Iterations 30
DILUPBiCGStab:  Solving for ILambda_61_0, Initial residual = 2.85815601985e-15, Final residual = 2.25410529197e-61, No Iterations 28
DILUPBiCGStab:  Solving for ILambda_62_0, Initial residual = 2.65287854287e-15, Final residual = 6.16078069187e-61, No Iterations 24
DILUPBiCGStab:  Solving for ILambda_63_0, Initial residual = 2.32637292467e-15, Final residual = 1.26322337601e-61, No Iterations 18
DILUPBiCGStab:  Solving for ILambda_64_0, Initial residual = 2.41812342906e-15, Final residual = 2.63382725601e-62, No Iterations 16
DILUPBiCGStab:  Solving for ILambda_65_0, Initial residual = 2.61288250204e-15, Final residual = 5.92110189749e-62, No Iterations 16
DILUPBiCGStab:  Solving for ILambda_66_0, Initial residual = 2.69342932893e-15, Final residual = 1.68931574579e-61, No Iterations 15
DILUPBiCGStab:  Solving for ILambda_67_0, Initial residual = 2.71767495718e-15, Final residual = 1.26793017135e-61, No Iterations 17
DILUPBiCGStab:  Solving for ILambda_68_0, Initial residual = 2.85413139787e-15, Final residual = 4.22803507945e-62, No Iterations 16
DILUPBiCGStab:  Solving for ILambda_69_0, Initial residual = 2.81700697921e-15, Final residual = 1.19705659687e-61, No Iterations 16
DILUPBiCGStab:  Solving for ILambda_70_0, Initial residual = 2.72858494602e-15, Final residual = 4.83505186652e-61, No Iterations 16
DILUPBiCGStab:  Solving for ILambda_71_0, Initial residual = 2.56496774547e-15, Final residual = 2.94549124367e-62, No Iterations 16
DILUPBiCGStab:  Solving for ILambda_72_0, Initial residual = 2.57030852764e-15, Final residual = 2.03147931541e-61, No Iterations 21
DILUPBiCGStab:  Solving for ILambda_73_0, Initial residual = 2.77516178771e-15, Final residual = 6.64173573038e-61, No Iterations 26
DILUPBiCGStab:  Solving for ILambda_74_0, Initial residual = 3.02041355083e-15, Final residual = 8.96620064056e-62, No Iterations 29
DILUPBiCGStab:  Solving for ILambda_75_0, Initial residual = 3.04174404746e-15, Final residual = 6.22957558755e-61, No Iterations 30
DILUPBiCGStab:  Solving for ILambda_76_0, Initial residual = 3.07967339052e-15, Final residual = 7.69430529958e-61, No Iterations 29
DILUPBiCGStab:  Solving for ILambda_77_0, Initial residual = 2.94989564688e-15, Final residual = 8.73366404198e-61, No Iterations 28
DILUPBiCGStab:  Solving for ILambda_78_0, Initial residual = 2.6305582068e-15, Final residual = 6.11746488137e-62, No Iterations 25
DILUPBiCGStab:  Solving for ILambda_79_0, Initial residual = 2.2498289651e-15, Final residual = 1.73468319357e-61, No Iterations 18
DILUPBiCGStab:  Solving for ILambda_80_0, Initial residual = 1.2862909476e-15, Final residual = 2.63952158972e-63, No Iterations 2
DILUPBiCGStab:  Solving for ILambda_81_0, Initial residual = 1.36279139777e-15, Final residual = 2.94429377133e-63, No Iterations 2
DILUPBiCGStab:  Solving for ILambda_82_0, Initial residual = 1.38731983729e-15, Final residual = 2.96812774007e-63, No Iterations 2
DILUPBiCGStab:  Solving for ILambda_83_0, Initial residual = 1.39397677964e-15, Final residual = 3.19506815815e-63, No Iterations 2
DILUPBiCGStab:  Solving for ILambda_84_0, Initial residual = 1.48505288788e-15, Final residual = 3.32650949255e-63, No Iterations 2
DILUPBiCGStab:  Solving for ILambda_85_0, Initial residual = 1.46921545642e-15, Final residual = 3.0832786847e-63, No Iterations 2
DILUPBiCGStab:  Solving for ILambda_86_0, Initial residual = 1.41417603116e-15, Final residual = 2.85710111013e-63, No Iterations 2
DILUPBiCGStab:  Solving for ILambda_87_0, Initial residual = 1.243314511e-15, Final residual = 2.43052021779e-63, No Iterations 2
DILUPBiCGStab:  Solving for ILambda_88_0, Initial residual = 2.33146352766e-15, Final residual = 5.32270754364e-61, No Iterations 18
DILUPBiCGStab:  Solving for ILambda_89_0, Initial residual = 2.65218239206e-15, Final residual = 2.96263107752e-61, No Iterations 24
DILUPBiCGStab:  Solving for ILambda_90_0, Initial residual = 2.86280065122e-15, Final residual = 2.82527654432e-63, No Iterations 29
DILUPBiCGStab:  Solving for ILambda_91_0, Initial residual = 3.1098471782e-15, Final residual = 2.7819941981e-61, No Iterations 30
DILUPBiCGStab:  Solving for ILambda_92_0, Initial residual = 3.00243328009e-15, Final residual = 3.48623816334e-61, No Iterations 30
DILUPBiCGStab:  Solving for ILambda_93_0, Initial residual = 3.07066693911e-15, Final residual = 7.89602530308e-61, No Iterations 28
DILUPBiCGStab:  Solving for ILambda_94_0, Initial residual = 2.85588265231e-15, Final residual = 1.36990983513e-61, No Iterations 26
DILUPBiCGStab:  Solving for ILambda_95_0, Initial residual = 2.55454723768e-15, Final residual = 2.20038453931e-61, No Iterations 21
DILUPBiCGStab:  Solving for ILambda_96_0, Initial residual = 1.07522671682e-15, Final residual = 3.03081689585e-62, No Iterations 16
DILUPBiCGStab:  Solving for ILambda_97_0, Initial residual = 1.11653347916e-15, Final residual = 1.91019941028e-61, No Iterations 16
DILUPBiCGStab:  Solving for ILambda_98_0, Initial residual = 1.06233161037e-15, Final residual = 1.08757992432e-61, No Iterations 15
DILUPBiCGStab:  Solving for ILambda_99_0, Initial residual = 1.24503313337e-15, Final residual = 5.72248771585e-62, No Iterations 17
DILUPBiCGStab:  Solving for ILambda_100_0, Initial residual = 1.18834578856e-15, Final residual = 6.32251401666e-61, No Iterations 15
DILUPBiCGStab:  Solving for ILambda_101_0, Initial residual = 1.19331130192e-15, Final residual = 1.91254283171e-61, No Iterations 15
DILUPBiCGStab:  Solving for ILambda_102_0, Initial residual = 1.16236522191e-15, Final residual = 7.64742339578e-61, No Iterations 16
DILUPBiCGStab:  Solving for ILambda_103_0, Initial residual = 1.1497366107e-15, Final residual = 4.26409861241e-61, No Iterations 15
DILUPBiCGStab:  Solving for ILambda_104_0, Initial residual = 1.13342601422e-15, Final residual = 3.70445055575e-61, No Iterations 18
DILUPBiCGStab:  Solving for ILambda_105_0, Initial residual = 1.14260106466e-15, Final residual = 9.28657821316e-63, No Iterations 20
DILUPBiCGStab:  Solving for ILambda_106_0, Initial residual = 1.21613743511e-15, Final residual = 1.74088904141e-61, No Iterations 21
DILUPBiCGStab:  Solving for ILambda_107_0, Initial residual = 1.16626475431e-15, Final residual = 2.1572932656e-61, No Iterations 21
DILUPBiCGStab:  Solving for ILambda_108_0, Initial residual = 1.10495453287e-15, Final residual = 5.39347606962e-61, No Iterations 21
DILUPBiCGStab:  Solving for ILambda_109_0, Initial residual = 1.11244903169e-15, Final residual = 1.25369883871e-61, No Iterations 20
DILUPBiCGStab:  Solving for ILambda_110_0, Initial residual = 1.06299512913e-15, Final residual = 3.87599580608e-61, No Iterations 18
DILUPBiCGStab:  Solving for ILambda_111_0, Initial residual = 9.83264103997e-16, Final residual = 3.72737048182e-61, No Iterations 14
DILUPBiCGStab:  Solving for ILambda_112_0, Initial residual = 5.77587644542e-16, Final residual = 1.8598797914e-63, No Iterations 2
DILUPBiCGStab:  Solving for ILambda_113_0, Initial residual = 5.94637901281e-16, Final residual = 1.47848493228e-63, No Iterations 2
DILUPBiCGStab:  Solving for ILambda_114_0, Initial residual = 6.40643681744e-16, Final residual = 1.13116667186e-63, No Iterations 2
DILUPBiCGStab:  Solving for ILambda_115_0, Initial residual = 6.13836435982e-16, Final residual = 1.06458291083e-63, No Iterations 2
DILUPBiCGStab:  Solving for ILambda_116_0, Initial residual = 5.94039646659e-16, Final residual = 1.05457761719e-63, No Iterations 2
DILUPBiCGStab:  Solving for ILambda_117_0, Initial residual = 6.20161618944e-16, Final residual = 1.08334941635e-63, No Iterations 2
DILUPBiCGStab:  Solving for ILambda_118_0, Initial residual = 6.11655525949e-16, Final residual = 1.06495227069e-63, No Iterations 2
DILUPBiCGStab:  Solving for ILambda_119_0, Initial residual = 5.69489452426e-16, Final residual = 1.81609739777e-63, No Iterations 2
DILUPBiCGStab:  Solving for ILambda_120_0, Initial residual = 1.04822911731e-15, Final residual = 3.64651937992e-61, No Iterations 14
DILUPBiCGStab:  Solving for ILambda_121_0, Initial residual = 9.98981884531e-16, Final residual = 2.29806647586e-61, No Iterations 18
DILUPBiCGStab:  Solving for ILambda_122_0, Initial residual = 1.06080334174e-15, Final residual = 8.41699041675e-62, No Iterations 20
DILUPBiCGStab:  Solving for ILambda_123_0, Initial residual = 1.17636981875e-15, Final residual = 8.51622305169e-62, No Iterations 21
DILUPBiCGStab:  Solving for ILambda_124_0, Initial residual = 1.26706521951e-15, Final residual = 3.86759928579e-61, No Iterations 21
DILUPBiCGStab:  Solving for ILambda_125_0, Initial residual = 1.08475528135e-15, Final residual = 7.54547181622e-62, No Iterations 21
DILUPBiCGStab:  Solving for ILambda_126_0, Initial residual = 1.17093657905e-15, Final residual = 3.09243533534e-61, No Iterations 19
DILUPBiCGStab:  Solving for ILambda_127_0, Initial residual = 1.09444700623e-15, Final residual = 3.84352251814e-61, No Iterations 17
min/max(T) = 1000, 1000
PIMPLE: iteration 2
Radiation solver iter: 0
DILUPBiCGStab:  Solving for ILambda_0_0, Initial residual = 5.04720231529e-16, Final residual = 1.00712945953e-63, No Iterations 2
DILUPBiCGStab:  Solving for ILambda_1_0, Initial residual = 5.10267683482e-16, Final residual = 1.01012050795e-63, No Iterations 2
DILUPBiCGStab:  Solving for ILambda_2_0, Initial residual = 5.34785245643e-16, Final residual = 1.05060806687e-63, No Iterations 2
DILUPBiCGStab:  Solving for ILambda_3_0, Initial residual = 5.32974165741e-16, Final residual = 9.86235301663e-64, No Iterations 2
DILUPBiCGStab:  Solving for ILambda_4_0, Initial residual = 5.32076783807e-16, Final residual = 9.66808294166e-64, No Iterations 2
DILUPBiCGStab:  Solving for ILambda_5_0, Initial residual = 5.32174680018e-16, Final residual = 1.00654148841e-63, No Iterations 2
DILUPBiCGStab:  Solving for ILambda_6_0, Initial residual = 5.02599146958e-16, Final residual = 9.19401946001e-64, No Iterations 2
DILUPBiCGStab:  Solving for ILambda_7_0, Initial residual = 4.99656821952e-16, Final residual = 1.60905353172e-63, No Iterations 2
DILUPBiCGStab:  Solving for ILambda_8_0, Initial residual = 5.41741315298e-16, Final residual = 6.99709283298e-62, No Iterations 14
DILUPBiCGStab:  Solving for ILambda_9_0, Initial residual = 5.66666778339e-16, Final residual = 6.67103033845e-61, No Iterations 18
DILUPBiCGStab:  Solving for ILambda_10_0, Initial residual = 5.88655355052e-16, Final residual = 7.76065597062e-61, No Iterations 20
DILUPBiCGStab:  Solving for ILambda_11_0, Initial residual = 5.85370393307e-16, Final residual = 3.73220607294e-61, No Iterations 21
DILUPBiCGStab:  Solving for ILambda_12_0, Initial residual = 5.96160731224e-16, Final residual = 1.93082991119e-61, No Iterations 21
DILUPBiCGStab:  Solving for ILambda_13_0, Initial residual = 5.95562476601e-16, Final residual = 1.88462982039e-61, No Iterations 21
DILUPBiCGStab:  Solving for ILambda_14_0, Initial residual = 5.71806329413e-16, Final residual = 2.17718930756e-61, No Iterations 19
DILUPBiCGStab:  Solving for ILambda_15_0, Initial residual = 5.50541096926e-16, Final residual = 7.05935822746e-62, No Iterations 17
DILUPBiCGStab:  Solving for ILambda_16_0, Initial residual = 5.4726157386e-16, Final residual = 8.84409868417e-61, No Iterations 15
DILUPBiCGStab:  Solving for ILambda_17_0, Initial residual = 5.79540130078e-16, Final residual = 5.26467365224e-61, No Iterations 14
DILUPBiCGStab:  Solving for ILambda_18_0, Initial residual = 5.92250321464e-16, Final residual = 1.25497625492e-62, No Iterations 16
DILUPBiCGStab:  Solving for ILambda_19_0, Initial residual = 5.88595529589e-16, Final residual = 2.12529077313e-61, No Iterations 16
DILUPBiCGStab:  Solving for ILambda_20_0, Initial residual = 5.82776143717e-16, Final residual = 1.30739659514e-61, No Iterations 15
DILUPBiCGStab:  Solving for ILambda_21_0, Initial residual = 5.799371536e-16, Final residual = 4.91037813156e-62, No Iterations 15
DILUPBiCGStab:  Solving for ILambda_22_0, Initial residual = 5.73127928261e-16, Final residual = 2.43084246193e-61, No Iterations 15
DILUPBiCGStab:  Solving for ILambda_23_0, Initial residual = 5.42676767981e-16, Final residual = 3.54297463726e-62, No Iterations 15
DILUPBiCGStab:  Solving for ILambda_24_0, Initial residual = 5.51927959914e-16, Final residual = 1.36216003246e-64, No Iterations 18
DILUPBiCGStab:  Solving for ILambda_25_0, Initial residual = 5.71632291705e-16, Final residual = 2.61991447646e-61, No Iterations 19
DILUPBiCGStab:  Solving for ILambda_26_0, Initial residual = 5.8950378888e-16, Final residual = 1.37968118059e-61, No Iterations 21
DILUPBiCGStab:  Solving for ILambda_27_0, Initial residual = 5.8815499664e-16, Final residual = 6.18424043441e-61, No Iterations 22
DILUPBiCGStab:  Solving for ILambda_28_0, Initial residual = 5.78827663209e-16, Final residual = 1.78524780477e-61, No Iterations 21
DILUPBiCGStab:  Solving for ILambda_29_0, Initial residual = 5.84875473574e-16, Final residual = 3.96378609313e-61, No Iterations 20
DILUPBiCGStab:  Solving for ILambda_30_0, Initial residual = 5.69908230657e-16, Final residual = 3.93014057611e-61, No Iterations 18
DILUPBiCGStab:  Solving for ILambda_31_0, Initial residual = 5.3860319787e-16, Final residual = 1.08282552611e-61, No Iterations 14
DILUPBiCGStab:  Solving for ILambda_32_0, Initial residual = 1.26921349746e-15, Final residual = 2.74307909424e-63, No Iterations 2
DILUPBiCGStab:  Solving for ILambda_33_0, Initial residual = 1.25266903781e-15, Final residual = 2.69185365837e-63, No Iterations 2
DILUPBiCGStab:  Solving for ILambda_34_0, Initial residual = 1.33455377958e-15, Final residual = 2.82196216644e-63, No Iterations 2
DILUPBiCGStab:  Solving for ILambda_35_0, Initial residual = 1.43286333008e-15, Final residual = 3.09357198589e-63, No Iterations 2
DILUPBiCGStab:  Solving for ILambda_36_0, Initial residual = 1.35928888888e-15, Final residual = 2.80741043866e-63, No Iterations 2
DILUPBiCGStab:  Solving for ILambda_37_0, Initial residual = 1.36355281274e-15, Final residual = 2.80204394031e-63, No Iterations 2
DILUPBiCGStab:  Solving for ILambda_38_0, Initial residual = 1.27996032595e-15, Final residual = 2.59655702157e-63, No Iterations 2
DILUPBiCGStab:  Solving for ILambda_39_0, Initial residual = 1.30093186981e-15, Final residual = 2.41305272378e-63, No Iterations 2
DILUPBiCGStab:  Solving for ILambda_40_0, Initial residual = 1.42668499143e-15, Final residual = 8.80632585274e-62, No Iterations 18
DILUPBiCGStab:  Solving for ILambda_41_0, Initial residual = 1.46962879597e-15, Final residual = 7.42525042881e-62, No Iterations 25
DILUPBiCGStab:  Solving for ILambda_42_0, Initial residual = 1.5275180887e-15, Final residual = 2.75872121279e-61, No Iterations 28
DILUPBiCGStab:  Solving for ILambda_43_0, Initial residual = 1.76007597646e-15, Final residual = 1.46593345226e-61, No Iterations 30
DILUPBiCGStab:  Solving for ILambda_44_0, Initial residual = 1.62211846054e-15, Final residual = 1.92062277492e-61, No Iterations 30
DILUPBiCGStab:  Solving for ILambda_45_0, Initial residual = 1.6392394201e-15, Final residual = 4.95479940097e-61, No Iterations 29
DILUPBiCGStab:  Solving for ILambda_46_0, Initial residual = 1.5379603512e-15, Final residual = 5.40967122756e-61, No Iterations 26
DILUPBiCGStab:  Solving for ILambda_47_0, Initial residual = 1.4430227813e-15, Final residual = 5.20416765888e-61, No Iterations 21
DILUPBiCGStab:  Solving for ILambda_48_0, Initial residual = 1.46942212619e-15, Final residual = 2.9369215236e-62, No Iterations 15
DILUPBiCGStab:  Solving for ILambda_49_0, Initial residual = 1.57505213779e-15, Final residual = 3.05705881767e-61, No Iterations 15
DILUPBiCGStab:  Solving for ILambda_50_0, Initial residual = 1.64987747502e-15, Final residual = 6.74246585075e-62, No Iterations 16
DILUPBiCGStab:  Solving for ILambda_51_0, Initial residual = 1.64347071188e-15, Final residual = 5.75471114769e-61, No Iterations 16
DILUPBiCGStab:  Solving for ILambda_52_0, Initial residual = 1.75576854318e-15, Final residual = 6.9934422058e-61, No Iterations 16
DILUPBiCGStab:  Solving for ILambda_53_0, Initial residual = 1.54189795435e-15, Final residual = 1.41939510096e-61, No Iterations 16
DILUPBiCGStab:  Solving for ILambda_54_0, Initial residual = 1.46459257978e-15, Final residual = 3.84389418664e-61, No Iterations 15
DILUPBiCGStab:  Solving for ILambda_55_0, Initial residual = 1.41903820962e-15, Final residual = 2.46380088386e-61, No Iterations 15
DILUPBiCGStab:  Solving for ILambda_56_0, Initial residual = 1.43372264127e-15, Final residual = 7.42198584203e-61, No Iterations 21
DILUPBiCGStab:  Solving for ILambda_57_0, Initial residual = 1.54355131258e-15, Final residual = 6.89117208067e-61, No Iterations 26
DILUPBiCGStab:  Solving for ILambda_58_0, Initial residual = 1.62307566793e-15, Final residual = 1.19294884848e-61, No Iterations 29
DILUPBiCGStab:  Solving for ILambda_59_0, Initial residual = 1.64428651364e-15, Final residual = 2.97200957474e-61, No Iterations 30
DILUPBiCGStab:  Solving for ILambda_60_0, Initial residual = 1.73996374379e-15, Final residual = 4.00695554456e-61, No Iterations 29
DILUPBiCGStab:  Solving for ILambda_61_0, Initial residual = 1.51643406215e-15, Final residual = 2.79160545445e-61, No Iterations 28
DILUPBiCGStab:  Solving for ILambda_62_0, Initial residual = 1.45756580731e-15, Final residual = 3.68121442473e-62, No Iterations 25
DILUPBiCGStab:  Solving for ILambda_63_0, Initial residual = 1.42296493542e-15, Final residual = 2.09259307672e-61, No Iterations 18
DILUPBiCGStab:  Solving for ILambda_64_0, Initial residual = 1.30552211437e-15, Final residual = 9.63775091366e-62, No Iterations 16
DILUPBiCGStab:  Solving for ILambda_65_0, Initial residual = 1.54206111472e-15, Final residual = 7.2451649636e-61, No Iterations 15
DILUPBiCGStab:  Solving for ILambda_66_0, Initial residual = 1.61113233021e-15, Final residual = 4.95974205927e-62, No Iterations 16
DILUPBiCGStab:  Solving for ILambda_67_0, Initial residual = 1.58155679715e-15, Final residual = 7.06230440202e-61, No Iterations 16
DILUPBiCGStab:  Solving for ILambda_68_0, Initial residual = 1.51069081779e-15, Final residual = 4.95971618142e-61, No Iterations 16
DILUPBiCGStab:  Solving for ILambda_69_0, Initial residual = 1.52537524943e-15, Final residual = 5.04877287076e-61, No Iterations 16
DILUPBiCGStab:  Solving for ILambda_70_0, Initial residual = 1.44120626274e-15, Final residual = 1.57046704494e-61, No Iterations 16
DILUPBiCGStab:  Solving for ILambda_71_0, Initial residual = 1.35572111587e-15, Final residual = 9.68752758576e-62, No Iterations 14
DILUPBiCGStab:  Solving for ILambda_72_0, Initial residual = 1.32060900822e-15, Final residual = 1.09543542657e-61, No Iterations 21
DILUPBiCGStab:  Solving for ILambda_73_0, Initial residual = 1.59293451234e-15, Final residual = 5.62956139514e-61, No Iterations 26
DILUPBiCGStab:  Solving for ILambda_74_0, Initial residual = 1.62414164891e-15, Final residual = 1.29825688966e-61, No Iterations 29
DILUPBiCGStab:  Solving for ILambda_75_0, Initial residual = 1.62202056434e-15, Final residual = 3.40691147334e-61, No Iterations 30
DILUPBiCGStab:  Solving for ILambda_76_0, Initial residual = 1.52292784416e-15, Final residual = 8.8712793607e-61, No Iterations 29
DILUPBiCGStab:  Solving for ILambda_77_0, Initial residual = 1.54994719838e-15, Final residual = 3.02525824143e-61, No Iterations 28
DILUPBiCGStab:  Solving for ILambda_78_0, Initial residual = 1.47507835172e-15, Final residual = 3.37427185815e-61, No Iterations 24
DILUPBiCGStab:  Solving for ILambda_79_0, Initial residual = 1.3224255268e-15, Final residual = 6.60765209751e-62, No Iterations 18
DILUPBiCGStab:  Solving for ILambda_80_0, Initial residual = 1.21234667627e-15, Final residual = 2.46218250894e-63, No Iterations 2
DILUPBiCGStab:  Solving for ILambda_81_0, Initial residual = 1.25688945225e-15, Final residual = 2.76752527751e-63, No Iterations 2
DILUPBiCGStab:  Solving for ILambda_82_0, Initial residual = 1.29112049401e-15, Final residual = 2.75526415954e-63, No Iterations 2
DILUPBiCGStab:  Solving for ILambda_83_0, Initial residual = 1.29687461574e-15, Final residual = 2.84819062722e-63, No Iterations 2
DILUPBiCGStab:  Solving for ILambda_84_0, Initial residual = 1.3640422938e-15, Final residual = 2.99494942689e-63, No Iterations 2
DILUPBiCGStab:  Solving for ILambda_85_0, Initial residual = 1.36731637819e-15, Final residual = 2.80093938098e-63, No Iterations 2
DILUPBiCGStab:  Solving for ILambda_86_0, Initial residual = 1.33755593007e-15, Final residual = 2.69997102573e-63, No Iterations 2
DILUPBiCGStab:  Solving for ILambda_87_0, Initial residual = 1.18119392648e-15, Final residual = 2.31618126062e-63, No Iterations 2
DILUPBiCGStab:  Solving for ILambda_88_0, Initial residual = 1.30125819052e-15, Final residual = 3.86938099521e-61, No Iterations 18
DILUPBiCGStab:  Solving for ILambda_89_0, Initial residual = 1.43684444267e-15, Final residual = 5.20645760919e-61, No Iterations 24
DILUPBiCGStab:  Solving for ILambda_90_0, Initial residual = 1.51776109969e-15, Final residual = 3.0324778358e-61, No Iterations 28
DILUPBiCGStab:  Solving for ILambda_91_0, Initial residual = 1.52176396698e-15, Final residual = 1.65243719958e-61, No Iterations 30
DILUPBiCGStab:  Solving for ILambda_92_0, Initial residual = 1.62835118598e-15, Final residual = 2.19047705513e-61, No Iterations 30
DILUPBiCGStab:  Solving for ILambda_93_0, Initial residual = 1.61981246092e-15, Final residual = 3.25457003504e-61, No Iterations 29
DILUPBiCGStab:  Solving for ILambda_94_0, Initial residual = 1.59369592731e-15, Final residual = 4.32664599942e-61, No Iterations 26
DILUPBiCGStab:  Solving for ILambda_95_0, Initial residual = 1.31476786763e-15, Final residual = 4.70816104493e-61, No Iterations 22
DILUPBiCGStab:  Solving for ILambda_96_0, Initial residual = 6.0319838106e-16, Final residual = 2.60024522489e-61, No Iterations 15
DILUPBiCGStab:  Solving for ILambda_97_0, Initial residual = 6.46272713873e-16, Final residual = 2.78165570928e-62, No Iterations 15
DILUPBiCGStab:  Solving for ILambda_98_0, Initial residual = 6.94579055293e-16, Final residual = 1.68882267623e-61, No Iterations 15
DILUPBiCGStab:  Solving for ILambda_99_0, Initial residual = 6.93833956354e-16, Final residual = 4.82912502378e-62, No Iterations 16
DILUPBiCGStab:  Solving for ILambda_100_0, Initial residual = 6.65270017474e-16, Final residual = 5.21683013943e-62, No Iterations 16
DILUPBiCGStab:  Solving for ILambda_101_0, Initial residual = 6.732648747e-16, Final residual = 3.00996218439e-61, No Iterations 15
DILUPBiCGStab:  Solving for ILambda_102_0, Initial residual = 6.47137463736e-16, Final residual = 5.45390302499e-61, No Iterations 15
DILUPBiCGStab:  Solving for ILambda_103_0, Initial residual = 6.007727305e-16, Final residual = 1.54302710415e-61, No Iterations 15
DILUPBiCGStab:  Solving for ILambda_104_0, Initial residual = 6.22266387479e-16, Final residual = 1.18600866031e-61, No Iterations 17
DILUPBiCGStab:  Solving for ILambda_105_0, Initial residual = 6.28520867623e-16, Final residual = 6.57154405783e-62, No Iterations 19
DILUPBiCGStab:  Solving for ILambda_106_0, Initial residual = 6.82929406192e-16, Final residual = 3.06435901262e-61, No Iterations 21
DILUPBiCGStab:  Solving for ILambda_107_0, Initial residual = 6.59717126842e-16, Final residual = 3.30735599761e-62, No Iterations 22
DILUPBiCGStab:  Solving for ILambda_108_0, Initial residual = 6.53310363704e-16, Final residual = 2.9092916565e-61, No Iterations 21
DILUPBiCGStab:  Solving for ILambda_109_0, Initial residual = 6.521791186e-16, Final residual = 6.68819908951e-62, No Iterations 20
DILUPBiCGStab:  Solving for ILambda_110_0, Initial residual = 6.51950694108e-16, Final residual = 7.12191918362e-61, No Iterations 18
DILUPBiCGStab:  Solving for ILambda_111_0, Initial residual = 6.00147282486e-16, Final residual = 2.88126695255e-62, No Iterations 14
DILUPBiCGStab:  Solving for ILambda_112_0, Initial residual = 5.39331980779e-16, Final residual = 2.67544689507e-63, No Iterations 2
DILUPBiCGStab:  Solving for ILambda_113_0, Initial residual = 5.59025435213e-16, Final residual = 1.41112454477e-63, No Iterations 2
DILUPBiCGStab:  Solving for ILambda_114_0, Initial residual = 6.02067135956e-16, Final residual = 1.91270447117e-63, No Iterations 2
DILUPBiCGStab:  Solving for ILambda_115_0, Initial residual = 5.74275489406e-16, Final residual = 1.00442273949e-63, No Iterations 2
DILUPBiCGStab:  Solving for ILambda_116_0, Initial residual = 5.6071686419e-16, Final residual = 1.01710697841e-63, No Iterations 2
DILUPBiCGStab:  Solving for ILambda_117_0, Initial residual = 5.85277935779e-16, Final residual = 1.86682597949e-63, No Iterations 2
DILUPBiCGStab:  Solving for ILambda_118_0, Initial residual = 5.79725045148e-16, Final residual = 1.00257812454e-63, No Iterations 2
DILUPBiCGStab:  Solving for ILambda_119_0, Initial residual = 5.33746458077e-16, Final residual = 1.90816698347e-63, No Iterations 2
DILUPBiCGStab:  Solving for ILambda_120_0, Initial residual = 6.07984418039e-16, Final residual = 3.22154365713e-61, No Iterations 14
DILUPBiCGStab:  Solving for ILambda_121_0, Initial residual = 6.29510707089e-16, Final residual = 4.67268988233e-62, No Iterations 18
DILUPBiCGStab:  Solving for ILambda_122_0, Initial residual = 6.7562526112e-16, Final residual = 7.19054398551e-61, No Iterations 20
DILUPBiCGStab:  Solving for ILambda_123_0, Initial residual = 6.40105252584e-16, Final residual = 1.96267901714e-61, No Iterations 21
DILUPBiCGStab:  Solving for ILambda_124_0, Initial residual = 6.60288188073e-16, Final residual = 3.43645700898e-62, No Iterations 22
DILUPBiCGStab:  Solving for ILambda_125_0, Initial residual = 6.48263270162e-16, Final residual = 9.85172309912e-62, No Iterations 21
DILUPBiCGStab:  Solving for ILambda_126_0, Initial residual = 6.6214821608e-16, Final residual = 3.70680796158e-61, No Iterations 19
DILUPBiCGStab:  Solving for ILambda_127_0, Initial residual = 6.07119668176e-16, Final residual = 4.49324520582e-61, No Iterations 17
min/max(T) = 1000, 1000
PIMPLE: iteration 3
Radiation solver iter: 0
DILUPBiCGStab:  Solving for ILambda_0_0, Initial residual = 4.96888534653e-16, Final residual = 9.8515897927e-64, No Iterations 2
DILUPBiCGStab:  Solving for ILambda_1_0, Initial residual = 5.05715509673e-16, Final residual = 9.95359356122e-64, No Iterations 2
DILUPBiCGStab:  Solving for ILambda_2_0, Initial residual = 5.32734863892e-16, Final residual = 1.04314087141e-63, No Iterations 2
DILUPBiCGStab:  Solving for ILambda_3_0, Initial residual = 5.28220760832e-16, Final residual = 9.66084815036e-64, No Iterations 2
DILUPBiCGStab:  Solving for ILambda_4_0, Initial residual = 5.29400954042e-16, Final residual = 9.57180402525e-64, No Iterations 2
DILUPBiCGStab:  Solving for ILambda_5_0, Initial residual = 5.29357444615e-16, Final residual = 9.91587389625e-64, No Iterations 2
DILUPBiCGStab:  Solving for ILambda_6_0, Initial residual = 4.99531732349e-16, Final residual = 9.1532541579e-64, No Iterations 2
DILUPBiCGStab:  Solving for ILambda_7_0, Initial residual = 4.95708341444e-16, Final residual = 8.69060428913e-64, No Iterations 2
DILUPBiCGStab:  Solving for ILambda_8_0, Initial residual = 5.04045835409e-16, Final residual = 7.82084454178e-62, No Iterations 14
DILUPBiCGStab:  Solving for ILambda_9_0, Initial residual = 5.17098663534e-16, Final residual = 1.99665141118e-61, No Iterations 18
DILUPBiCGStab:  Solving for ILambda_10_0, Initial residual = 5.45314526998e-16, Final residual = 2.11249736459e-61, No Iterations 20
DILUPBiCGStab:  Solving for ILambda_11_0, Initial residual = 5.40550244732e-16, Final residual = 1.34210688109e-61, No Iterations 21
DILUPBiCGStab:  Solving for ILambda_12_0, Initial residual = 5.46228224966e-16, Final residual = 2.76988034746e-61, No Iterations 21
DILUPBiCGStab:  Solving for ILambda_13_0, Initial residual = 5.45488564706e-16, Final residual = 9.19346327847e-61, No Iterations 20
DILUPBiCGStab:  Solving for ILambda_14_0, Initial residual = 5.22537341919e-16, Final residual = 3.79239694014e-61, No Iterations 19
DILUPBiCGStab:  Solving for ILambda_15_0, Initial residual = 5.15303899667e-16, Final residual = 6.74887884328e-62, No Iterations 17
DILUPBiCGStab:  Solving for ILambda_16_0, Initial residual = 5.08032386665e-16, Final residual = 5.33492666933e-61, No Iterations 15
DILUPBiCGStab:  Solving for ILambda_17_0, Initial residual = 5.29107265409e-16, Final residual = 2.5794880711e-61, No Iterations 14
DILUPBiCGStab:  Solving for ILambda_18_0, Initial residual = 5.48213342577e-16, Final residual = 1.2136291522e-61, No Iterations 15
DILUPBiCGStab:  Solving for ILambda_19_0, Initial residual = 5.39810584472e-16, Final residual = 1.66594979074e-61, No Iterations 15
DILUPBiCGStab:  Solving for ILambda_20_0, Initial residual = 5.34197868378e-16, Final residual = 5.43894660573e-61, No Iterations 16
DILUPBiCGStab:  Solving for ILambda_21_0, Initial residual = 5.43030282076e-16, Final residual = 4.46219422363e-61, No Iterations 15
DILUPBiCGStab:  Solving for ILambda_22_0, Initial residual = 5.21830313729e-16, Final residual = 3.22768144711e-62, No Iterations 15
DILUPBiCGStab:  Solving for ILambda_23_0, Initial residual = 5.02642656385e-16, Final residual = 4.54476244131e-61, No Iterations 14
DILUPBiCGStab:  Solving for ILambda_24_0, Initial residual = 5.07428693365e-16, Final residual = 4.1167646198e-62, No Iterations 17
DILUPBiCGStab:  Solving for ILambda_25_0, Initial residual = 5.26371610181e-16, Final residual = 3.10582974972e-61, No Iterations 19
DILUPBiCGStab:  Solving for ILambda_26_0, Initial residual = 5.35459641763e-16, Final residual = 1.36094904025e-61, No Iterations 21
DILUPBiCGStab:  Solving for ILambda_27_0, Initial residual = 5.37575287655e-16, Final residual = 4.75675526577e-62, No Iterations 22
DILUPBiCGStab:  Solving for ILambda_28_0, Initial residual = 5.36879136822e-16, Final residual = 1.47494121792e-61, No Iterations 21
DILUPBiCGStab:  Solving for ILambda_29_0, Initial residual = 5.38184419634e-16, Final residual = 6.99879579298e-62, No Iterations 20
DILUPBiCGStab:  Solving for ILambda_30_0, Initial residual = 5.17229191815e-16, Final residual = 4.58538958968e-61, No Iterations 18
DILUPBiCGStab:  Solving for ILambda_31_0, Initial residual = 5.05057429588e-16, Final residual = 1.11166564789e-61, No Iterations 14
DILUPBiCGStab:  Solving for ILambda_32_0, Initial residual = 1.25110269844e-15, Final residual = 2.71713315939e-63, No Iterations 2
DILUPBiCGStab:  Solving for ILambda_33_0, Initial residual = 1.23627686116e-15, Final residual = 2.61893857243e-63, No Iterations 2
DILUPBiCGStab:  Solving for ILambda_34_0, Initial residual = 1.30633791612e-15, Final residual = 2.75156336135e-63, No Iterations 2
DILUPBiCGStab:  Solving for ILambda_35_0, Initial residual = 1.40073161818e-15, Final residual = 3.02141977512e-63, No Iterations 2
DILUPBiCGStab:  Solving for ILambda_36_0, Initial residual = 1.32922387477e-15, Final residual = 2.76517822259e-63, No Iterations 2
DILUPBiCGStab:  Solving for ILambda_37_0, Initial residual = 1.3282340353e-15, Final residual = 2.70955940225e-63, No Iterations 2
DILUPBiCGStab:  Solving for ILambda_38_0, Initial residual = 1.2596414235e-15, Final residual = 2.52547881498e-63, No Iterations 2
DILUPBiCGStab:  Solving for ILambda_39_0, Initial residual = 1.28005822216e-15, Final residual = 2.38326528221e-63, No Iterations 2
DILUPBiCGStab:  Solving for ILambda_40_0, Initial residual = 1.27662097742e-15, Final residual = 3.00738525939e-61, No Iterations 18
DILUPBiCGStab:  Solving for ILambda_41_0, Initial residual = 1.29014153189e-15, Final residual = 3.21999714649e-62, No Iterations 25
DILUPBiCGStab:  Solving for ILambda_42_0, Initial residual = 1.3491947018e-15, Final residual = 4.6015749048e-61, No Iterations 28
DILUPBiCGStab:  Solving for ILambda_43_0, Initial residual = 1.5015755928e-15, Final residual = 1.44431365053e-61, No Iterations 30
DILUPBiCGStab:  Solving for ILambda_44_0, Initial residual = 1.3820551966e-15, Final residual = 5.19572107346e-61, No Iterations 30
DILUPBiCGStab:  Solving for ILambda_45_0, Initial residual = 1.40342920266e-15, Final residual = 3.09276595959e-61, No Iterations 29
DILUPBiCGStab:  Solving for ILambda_46_0, Initial residual = 1.3224472815e-15, Final residual = 8.73257832208e-61, No Iterations 26
DILUPBiCGStab:  Solving for ILambda_47_0, Initial residual = 1.29575424798e-15, Final residual = 1.79081669147e-61, No Iterations 21
DILUPBiCGStab:  Solving for ILambda_48_0, Initial residual = 1.29711391758e-15, Final residual = 1.70005466508e-62, No Iterations 15
DILUPBiCGStab:  Solving for ILambda_49_0, Initial residual = 1.34571394763e-15, Final residual = 5.77757408607e-61, No Iterations 15
DILUPBiCGStab:  Solving for ILambda_50_0, Initial residual = 1.3928999213e-15, Final residual = 7.97232066714e-61, No Iterations 15
DILUPBiCGStab:  Solving for ILambda_51_0, Initial residual = 1.41993015288e-15, Final residual = 2.49654695727e-61, No Iterations 16
DILUPBiCGStab:  Solving for ILambda_52_0, Initial residual = 1.50475178098e-15, Final residual = 4.40917861311e-61, No Iterations 15
DILUPBiCGStab:  Solving for ILambda_53_0, Initial residual = 1.35703727603e-15, Final residual = 6.88291015016e-62, No Iterations 15
DILUPBiCGStab:  Solving for ILambda_54_0, Initial residual = 1.29336122949e-15, Final residual = 3.65773750726e-62, No Iterations 15
DILUPBiCGStab:  Solving for ILambda_55_0, Initial residual = 1.2732054874e-15, Final residual = 7.07906219258e-62, No Iterations 15
DILUPBiCGStab:  Solving for ILambda_56_0, Initial residual = 1.274412874e-15, Final residual = 1.88923566807e-63, No Iterations 22
DILUPBiCGStab:  Solving for ILambda_57_0, Initial residual = 1.32782069574e-15, Final residual = 1.45083009108e-61, No Iterations 26
DILUPBiCGStab:  Solving for ILambda_58_0, Initial residual = 1.38813563904e-15, Final residual = 9.82896050385e-61, No Iterations 29
DILUPBiCGStab:  Solving for ILambda_59_0, Initial residual = 1.40288533482e-15, Final residual = 9.96438525378e-61, No Iterations 30
DILUPBiCGStab:  Solving for ILambda_60_0, Initial residual = 1.50352263966e-15, Final residual = 8.95235166985e-62, No Iterations 30
DILUPBiCGStab:  Solving for ILambda_61_0, Initial residual = 1.31103693425e-15, Final residual = 2.22006297594e-61, No Iterations 28
DILUPBiCGStab:  Solving for ILambda_62_0, Initial residual = 1.28619305138e-15, Final residual = 2.48623600144e-61, No Iterations 24
DILUPBiCGStab:  Solving for ILambda_63_0, Initial residual = 1.26844120513e-15, Final residual = 1.81516240449e-61, No Iterations 18
DILUPBiCGStab:  Solving for ILambda_64_0, Initial residual = 1.20231775333e-15, Final residual = 3.72434792056e-61, No Iterations 16
DILUPBiCGStab:  Solving for ILambda_65_0, Initial residual = 1.35971310581e-15, Final residual = 1.51189096099e-61, No Iterations 15
[...]
DILUPBiCGStab:  Solving for ILambda_108_0, Initial residual = 5.62038463038e-16, Final residual = 6.4153501668e-61, No Iterations 21
DILUPBiCGStab:  Solving for ILambda_109_0, Initial residual = 5.72246862368e-16, Final residual = 1.21243988171e-61, No Iterations 20
DILUPBiCGStab:  Solving for ILambda_110_0, Initial residual = 5.72453532146e-16, Final residual = 7.1228206779e-61, No Iterations 18
DILUPBiCGStab:  Solving for ILambda_111_0, Initial residual = 5.33382066625e-16, Final residual = 4.91473233826e-61, No Iterations 14
DILUPBiCGStab:  Solving for ILambda_112_0, Initial residual = 5.28900595635e-16, Final residual = 2.75835599897e-63, No Iterations 2
DILUPBiCGStab:  Solving for ILambda_113_0, Initial residual = 5.5300481824e-16, Final residual = 1.42224446787e-63, No Iterations 2
DILUPBiCGStab:  Solving for ILambda_114_0, Initial residual = 5.89851864302e-16, Final residual = 1.07601066106e-63, No Iterations 2
DILUPBiCGStab:  Solving for ILambda_115_0, Initial residual = 5.70000688195e-16, Final residual = 1.0463088005e-63, No Iterations 2
DILUPBiCGStab:  Solving for ILambda_116_0, Initial residual = 5.56909789321e-16, Final residual = 1.02658404799e-63, No Iterations 2
DILUPBiCGStab:  Solving for ILambda_117_0, Initial residual = 5.78283795376e-16, Final residual = 1.04194300083e-63, No Iterations 2
DILUPBiCGStab:  Solving for ILambda_118_0, Initial residual = 5.7301371602e-16, Final residual = 1.01316420564e-63, No Iterations 2
DILUPBiCGStab:  Solving for ILambda_119_0, Initial residual = 5.32038713064e-16, Final residual = 9.55951679133e-64, No Iterations 2
DILUPBiCGStab:  Solving for ILambda_120_0, Initial residual = 5.30439741618e-16, Final residual = 3.51888670559e-62, No Iterations 14
DILUPBiCGStab:  Solving for ILambda_121_0, Initial residual = 5.6415410893e-16, Final residual = 7.7745212276e-62, No Iterations 18
DILUPBiCGStab:  Solving for ILambda_122_0, Initial residual = 5.94132104191e-16, Final residual = 6.91166240618e-62, No Iterations 20
DILUPBiCGStab:  Solving for ILambda_123_0, Initial residual = 5.44868555375e-16, Final residual = 9.2374873759e-61, No Iterations 21
DILUPBiCGStab:  Solving for ILambda_124_0, Initial residual = 5.53129907843e-16, Final residual = 3.83416460751e-61, No Iterations 21
DILUPBiCGStab:  Solving for ILambda_125_0, Initial residual = 5.79126790525e-16, Final residual = 4.44450441085e-61, No Iterations 21
DILUPBiCGStab:  Solving for ILambda_126_0, Initial residual = 5.83771421867e-16, Final residual = 8.02851340779e-62, No Iterations 20
DILUPBiCGStab:  Solving for ILambda_127_0, Initial residual = 5.32207312094e-16, Final residual = 2.80577175757e-61, No Iterations 17
min/max(T) = 1000, 1000
PIMPLE: iteration 10
Radiation solver iter: 0
DILUPBiCGStab:  Solving for ILambda_0_0, Initial residual = 5.01462463176e-16, Final residual = 1.01433183052e-63, No Iterations 2
DILUPBiCGStab:  Solving for ILambda_1_0, Initial residual = 5.09266966659e-16, Final residual = 1.01126156979e-63, No Iterations 2
DILUPBiCGStab:  Solving for ILambda_2_0, Initial residual = 5.35263849341e-16, Final residual = 1.04934172162e-63, No Iterations 2
DILUPBiCGStab:  Solving for ILambda_3_0, Initial residual = 5.33137326093e-16, Final residual = 9.91734323428e-64, No Iterations 2
DILUPBiCGStab:  Solving for ILambda_4_0, Initial residual = 5.32196434732e-16, Final residual = 9.73522381168e-64, No Iterations 2
DILUPBiCGStab:  Solving for ILambda_5_0, Initial residual = 5.32647845038e-16, Final residual = 9.95332353778e-64, No Iterations 2
DILUPBiCGStab:  Solving for ILambda_6_0, Initial residual = 5.00015774725e-16, Final residual = 9.27035208525e-64, No Iterations 2
DILUPBiCGStab:  Solving for ILambda_7_0, Initial residual = 4.97579246808e-16, Final residual = 1.60265796233e-63, No Iterations 2
DILUPBiCGStab:  Solving for ILambda_8_0, Initial residual = 4.92069865604e-16, Final residual = 1.61949793935e-61, No Iterations 14
DILUPBiCGStab:  Solving for ILambda_9_0, Initial residual = 5.02370722466e-16, Final residual = 3.20419139395e-61, No Iterations 18
DILUPBiCGStab:  Solving for ILambda_10_0, Initial residual = 5.30635534035e-16, Final residual = 1.51667000936e-61, No Iterations 20
DILUPBiCGStab:  Solving for ILambda_11_0, Initial residual = 5.22238214608e-16, Final residual = 5.63939595346e-61, No Iterations 21
DILUPBiCGStab:  Solving for ILambda_12_0, Initial residual = 5.33202590233e-16, Final residual = 1.19412924885e-61, No Iterations 21
DILUPBiCGStab:  Solving for ILambda_13_0, Initial residual = 5.31386071653e-16, Final residual = 1.27265303739e-61, No Iterations 21
DILUPBiCGStab:  Solving for ILambda_14_0, Initial residual = 5.07265533013e-16, Final residual = 1.00507815521e-61, No Iterations 19
DILUPBiCGStab:  Solving for ILambda_15_0, Initial residual = 4.99754718163e-16, Final residual = 5.03286457669e-62, No Iterations 17
DILUPBiCGStab:  Solving for ILambda_16_0, Initial residual = 4.9410393132e-16, Final residual = 1.2477130021e-61, No Iterations 14
DILUPBiCGStab:  Solving for ILambda_17_0, Initial residual = 5.08298881906e-16, Final residual = 2.19273401358e-61, No Iterations 15
DILUPBiCGStab:  Solving for ILambda_18_0, Initial residual = 5.32049590416e-16, Final residual = 8.45518039945e-61, No Iterations 14
DILUPBiCGStab:  Solving for ILambda_19_0, Initial residual = 5.21155917609e-16, Final residual = 5.33178848358e-62, No Iterations 15
DILUPBiCGStab:  Solving for ILambda_20_0, Initial residual = 5.19459049953e-16, Final residual = 3.92798660569e-61, No Iterations 15
DILUPBiCGStab:  Solving for ILambda_21_0, Initial residual = 5.31940816848e-16, Final residual = 1.82475773607e-61, No Iterations 15
DILUPBiCGStab:  Solving for ILambda_22_0, Initial residual = 5.05024797518e-16, Final residual = 6.23723627319e-62, No Iterations 15
DILUPBiCGStab:  Solving for ILambda_23_0, Initial residual = 4.85673979823e-16, Final residual = 7.02158701666e-62, No Iterations 14
DILUPBiCGStab:  Solving for ILambda_24_0, Initial residual = 4.9077002147e-16, Final residual = 8.6045412478e-62, No Iterations 17
DILUPBiCGStab:  Solving for ILambda_25_0, Initial residual = 5.1081155132e-16, Final residual = 1.32019034516e-61, No Iterations 19
DILUPBiCGStab:  Solving for ILambda_26_0, Initial residual = 5.16130578781e-16, Final residual = 5.94645252285e-62, No Iterations 21
DILUPBiCGStab:  Solving for ILambda_27_0, Initial residual = 5.20263974354e-16, Final residual = 7.53137295505e-62, No Iterations 22
DILUPBiCGStab:  Solving for ILambda_28_0, Initial residual = 5.1893149815e-16, Final residual = 6.72838075251e-61, No Iterations 21
DILUPBiCGStab:  Solving for ILambda_29_0, Initial residual = 5.23967714335e-16, Final residual = 6.4881091779e-62, No Iterations 20
DILUPBiCGStab:  Solving for ILambda_30_0, Initial residual = 5.00782628377e-16, Final residual = 3.44301947715e-61, No Iterations 18
DILUPBiCGStab:  Solving for ILambda_31_0, Initial residual = 4.96246770604e-16, Final residual = 1.09474176795e-61, No Iterations 14
DILUPBiCGStab:  Solving for ILambda_32_0, Initial residual = 1.25539925436e-15, Final residual = 2.78806766606e-63, No Iterations 2
DILUPBiCGStab:  Solving for ILambda_33_0, Initial residual = 1.23549369147e-15, Final residual = 2.66987615273e-63, No Iterations 2
DILUPBiCGStab:  Solving for ILambda_34_0, Initial residual = 1.29974623792e-15, Final residual = 2.78536561453e-63, No Iterations 2
DILUPBiCGStab:  Solving for ILambda_35_0, Initial residual = 1.38173975326e-15, Final residual = 3.01393146059e-63, No Iterations 2
DILUPBiCGStab:  Solving for ILambda_36_0, Initial residual = 1.33076845943e-15, Final residual = 2.81009824464e-63, No Iterations 2
DILUPBiCGStab:  Solving for ILambda_37_0, Initial residual = 1.32692875249e-15, Final residual = 2.68314849611e-63, No Iterations 2
DILUPBiCGStab:  Solving for ILambda_38_0, Initial residual = 1.25641084854e-15, Final residual = 2.59592186329e-63, No Iterations 2
DILUPBiCGStab:  Solving for ILambda_39_0, Initial residual = 1.28299510849e-15, Final residual = 2.4265350101e-63, No Iterations 2
DILUPBiCGStab:  Solving for ILambda_40_0, Initial residual = 1.2414762377e-15, Final residual = 1.73753265713e-61, No Iterations 18
DILUPBiCGStab:  Solving for ILambda_41_0, Initial residual = 1.24850301017e-15, Final residual = 3.57882923629e-62, No Iterations 25
DILUPBiCGStab:  Solving for ILambda_42_0, Initial residual = 1.30597896335e-15, Final residual = 2.13858037511e-61, No Iterations 28
DILUPBiCGStab:  Solving for ILambda_43_0, Initial residual = 1.41592728559e-15, Final residual = 8.61861134226e-61, No Iterations 29
DILUPBiCGStab:  Solving for ILambda_44_0, Initial residual = 1.30770846307e-15, Final residual = 7.08779301961e-62, No Iterations 30
DILUPBiCGStab:  Solving for ILambda_45_0, Initial residual = 1.31486576383e-15, Final residual = 7.69320923684e-61, No Iterations 28
DILUPBiCGStab:  Solving for ILambda_46_0, Initial residual = 1.2614796968e-15, Final residual = 6.12773590797e-61, No Iterations 26
DILUPBiCGStab:  Solving for ILambda_47_0, Initial residual = 1.26161022508e-15, Final residual = 5.86780731536e-61, No Iterations 21
DILUPBiCGStab:  Solving for ILambda_48_0, Initial residual = 1.26071828182e-15, Final residual = 1.23242865588e-61, No Iterations 15
DILUPBiCGStab:  Solving for ILambda_49_0, Initial residual = 1.26987701622e-15, Final residual = 6.00868980128e-62, No Iterations 15
DILUPBiCGStab:  Solving for ILambda_50_0, Initial residual = 1.31270116983e-15, Final residual = 3.99366138385e-61, No Iterations 15
DILUPBiCGStab:  Solving for ILambda_51_0, Initial residual = 1.35958257751e-15, Final residual = 4.10347461223e-62, No Iterations 16
DILUPBiCGStab:  Solving for ILambda_52_0, Initial residual = 1.43057908516e-15, Final residual = 3.03077966768e-62, No Iterations 16
DILUPBiCGStab:  Solving for ILambda_53_0, Initial residual = 1.30818706677e-15, Final residual = 5.72972912537e-61, No Iterations 16
DILUPBiCGStab:  Solving for ILambda_54_0, Initial residual = 1.26029406491e-15, Final residual = 3.80275611519e-61, No Iterations 15
DILUPBiCGStab:  Solving for ILambda_55_0, Initial residual = 1.24117167171e-15, Final residual = 1.74049798286e-61, No Iterations 15
DILUPBiCGStab:  Solving for ILambda_56_0, Initial residual = 1.23099046577e-15, Final residual = 6.51989163672e-61, No Iterations 21
DILUPBiCGStab:  Solving for ILambda_57_0, Initial residual = 1.26738610152e-15, Final residual = 9.43383773115e-61, No Iterations 26
DILUPBiCGStab:  Solving for ILambda_58_0, Initial residual = 1.32480766792e-15, Final residual = 3.40441466685e-61, No Iterations 28
DILUPBiCGStab:  Solving for ILambda_59_0, Initial residual = 1.33705557164e-15, Final residual = 7.16876606169e-62, No Iterations 30
DILUPBiCGStab:  Solving for ILambda_60_0, Initial residual = 1.42006068116e-15, Final residual = 5.17219596223e-61, No Iterations 29
DILUPBiCGStab:  Solving for ILambda_61_0, Initial residual = 1.26345937573e-15, Final residual = 8.56615348782e-61, No Iterations 27
DILUPBiCGStab:  Solving for ILambda_62_0, Initial residual = 1.23728845534e-15, Final residual = 1.80680622131e-61, No Iterations 24
DILUPBiCGStab:  Solving for ILambda_63_0, Initial residual = 1.23644002151e-15, Final residual = 9.48857001877e-62, No Iterations 18
DILUPBiCGStab:  Solving for ILambda_64_0, Initial residual = 1.16051607126e-15, Final residual = 7.2931007404e-61, No Iterations 15
DILUPBiCGStab:  Solving for ILambda_65_0, Initial residual = 1.31327766975e-15, Final residual = 1.81637917787e-61, No Iterations 15
DILUPBiCGStab:  Solving for ILambda_66_0, Initial residual = 1.33771909042e-15, Final residual = 1.44642502674e-62, No Iterations 17
DILUPBiCGStab:  Solving for ILambda_67_0, Initial residual = 1.31949951783e-15, Final residual = 1.64304840567e-61, No Iterations 15
DILUPBiCGStab:  Solving for ILambda_68_0, Initial residual = 1.28109157107e-15, Final residual = 1.89692139509e-62, No Iterations 16
DILUPBiCGStab:  Solving for ILambda_69_0, Initial residual = 1.27459778907e-15, Final residual = 2.21065615359e-62, No Iterations 16
DILUPBiCGStab:  Solving for ILambda_70_0, Initial residual = 1.22101592962e-15, Final residual = 1.18591241713e-61, No Iterations 16
DILUPBiCGStab:  Solving for ILambda_71_0, Initial residual = 1.20542867737e-15, Final residual = 8.72231680789e-61, No Iterations 15
DILUPBiCGStab:  Solving for ILambda_72_0, Initial residual = 1.16817373043e-15, Final residual = 7.86017761353e-61, No Iterations 21
DILUPBiCGStab:  Solving for ILambda_73_0, Initial residual = 1.34943400366e-15, Final residual = 1.59003653802e-61, No Iterations 26
DILUPBiCGStab:  Solving for ILambda_74_0, Initial residual = 1.33563063792e-15, Final residual = 6.18130313198e-61, No Iterations 29
DILUPBiCGStab:  Solving for ILambda_75_0, Initial residual = 1.31785703695e-15, Final residual = 2.04769470574e-61, No Iterations 30
DILUPBiCGStab:  Solving for ILambda_76_0, Initial residual = 1.26702714876e-15, Final residual = 2.51637018679e-61, No Iterations 30
DILUPBiCGStab:  Solving for ILambda_77_0, Initial residual = 1.28572532505e-15, Final residual = 6.26346497995e-61, No Iterations 28
DILUPBiCGStab:  Solving for ILambda_78_0, Initial residual = 1.2513420003e-15, Final residual = 2.18926775505e-61, No Iterations 24
DILUPBiCGStab:  Solving for ILambda_79_0, Initial residual = 1.1937463962e-15, Final residual = 3.21285746415e-61, No Iterations 18
DILUPBiCGStab:  Solving for ILambda_80_0, Initial residual = 1.17951881354e-15, Final residual = 2.49176292713e-63, No Iterations 2
DILUPBiCGStab:  Solving for ILambda_81_0, Initial residual = 1.22287595763e-15, Final residual = 2.72622440973e-63, No Iterations 2
DILUPBiCGStab:  Solving for ILambda_82_0, Initial residual = 1.2672446959e-15, Final residual = 2.77492532337e-63, No Iterations 2
DILUPBiCGStab:  Solving for ILambda_83_0, Initial residual = 1.27087773306e-15, Final residual = 2.8111366305e-63, No Iterations 2
DILUPBiCGStab:  Solving for ILambda_84_0, Initial residual = 1.33692504337e-15, Final residual = 2.90563644443e-63, No Iterations 2
DILUPBiCGStab:  Solving for ILambda_85_0, Initial residual = 1.34009035419e-15, Final residual = 2.7737893331e-63, No Iterations 2
DILUPBiCGStab:  Solving for ILambda_86_0, Initial residual = 1.33008318596e-15, Final residual = 2.73525169835e-63, No Iterations 2
DILUPBiCGStab:  Solving for ILambda_87_0, Initial residual = 1.16549790066e-15, Final residual = 2.35700708996e-63, No Iterations 2
DILUPBiCGStab:  Solving for ILambda_88_0, Initial residual = 1.14788746005e-15, Final residual = 2.04797255051e-61, No Iterations 18
DILUPBiCGStab:  Solving for ILambda_89_0, Initial residual = 1.23571123862e-15, Final residual = 2.86675504302e-61, No Iterations 24
DILUPBiCGStab:  Solving for ILambda_90_0, Initial residual = 1.27077983685e-15, Final residual = 1.99234514593e-61, No Iterations 28
DILUPBiCGStab:  Solving for ILambda_91_0, Initial residual = 1.2730314497e-15, Final residual = 9.49816021888e-61, No Iterations 29
DILUPBiCGStab:  Solving for ILambda_92_0, Initial residual = 1.33272638366e-15, Final residual = 1.17340172428e-61, No Iterations 30
DILUPBiCGStab:  Solving for ILambda_93_0, Initial residual = 1.31966267818e-15, Final residual = 1.40238928461e-61, No Iterations 29
DILUPBiCGStab:  Solving for ILambda_94_0, Initial residual = 1.33391201555e-15, Final residual = 1.99639760407e-61, No Iterations 26
DILUPBiCGStab:  Solving for ILambda_95_0, Initial residual = 1.15417457226e-15, Final residual = 1.19086389307e-61, No Iterations 22
DILUPBiCGStab:  Solving for ILambda_96_0, Initial residual = 5.31369755622e-16, Final residual = 6.36267369885e-62, No Iterations 15
DILUPBiCGStab:  Solving for ILambda_97_0, Initial residual = 5.68021009262e-16, Final residual = 1.19130486989e-61, No Iterations 15
DILUPBiCGStab:  Solving for ILambda_98_0, Initial residual = 5.99010598703e-16, Final residual = 1.32992703802e-62, No Iterations 16
DILUPBiCGStab:  Solving for ILambda_99_0, Initial residual = 5.8520723296e-16, Final residual = 2.71883671776e-62, No Iterations 16
DILUPBiCGStab:  Solving for ILambda_100_0, Initial residual = 5.57502605265e-16, Final residual = 2.42820175669e-62, No Iterations 15
DILUPBiCGStab:  Solving for ILambda_101_0, Initial residual = 5.79132229204e-16, Final residual = 2.10923039294e-61, No Iterations 15
DILUPBiCGStab:  Solving for ILambda_102_0, Initial residual = 5.53962025636e-16, Final residual = 5.4447725474e-61, No Iterations 15
DILUPBiCGStab:  Solving for ILambda_103_0, Initial residual = 5.16658130589e-16, Final residual = 2.52103510982e-61, No Iterations 15
DILUPBiCGStab:  Solving for ILambda_104_0, Initial residual = 5.39000221397e-16, Final residual = 2.40724388653e-61, No Iterations 17
DILUPBiCGStab:  Solving for ILambda_105_0, Initial residual = 5.51525497719e-16, Final residual = 8.61543575603e-61, No Iterations 19
DILUPBiCGStab:  Solving for ILambda_106_0, Initial residual = 5.79589078188e-16, Final residual = 2.48227230792e-61, No Iterations 21
DILUPBiCGStab:  Solving for ILambda_107_0, Initial residual = 5.46304366469e-16, Final residual = 6.50908077099e-61, No Iterations 21
DILUPBiCGStab:  Solving for ILambda_108_0, Initial residual = 5.64823066372e-16, Final residual = 1.940190245e-61, No Iterations 21
DILUPBiCGStab:  Solving for ILambda_109_0, Initial residual = 5.71278777615e-16, Final residual = 7.2638713012e-61, No Iterations 20
DILUPBiCGStab:  Solving for ILambda_110_0, Initial residual = 5.71425621932e-16, Final residual = 3.18462564489e-61, No Iterations 18
DILUPBiCGStab:  Solving for ILambda_111_0, Initial residual = 5.35475957803e-16, Final residual = 1.79102742939e-61, No Iterations 14
DILUPBiCGStab:  Solving for ILambda_112_0, Initial residual = 5.31908184782e-16, Final residual = 9.75426984712e-64, No Iterations 2
DILUPBiCGStab:  Solving for ILambda_113_0, Initial residual = 5.53923954887e-16, Final residual = 1.4097521427e-63, No Iterations 2
DILUPBiCGStab:  Solving for ILambda_114_0, Initial residual = 5.90977670728e-16, Final residual = 1.96485954426e-63, No Iterations 2
DILUPBiCGStab:  Solving for ILambda_115_0, Initial residual = 5.70647890922e-16, Final residual = 1.04210027115e-63, No Iterations 2
DILUPBiCGStab:  Solving for ILambda_116_0, Initial residual = 5.58215072133e-16, Final residual = 1.04370313588e-63, No Iterations 2
DILUPBiCGStab:  Solving for ILambda_117_0, Initial residual = 5.80638743117e-16, Final residual = 1.03933604571e-63, No Iterations 2
DILUPBiCGStab:  Solving for ILambda_118_0, Initial residual = 5.72605815141e-16, Final residual = 1.02296038709e-63, No Iterations 2
DILUPBiCGStab:  Solving for ILambda_119_0, Initial residual = 5.30717114216e-16, Final residual = 1.32567337511e-63, No Iterations 2
DILUPBiCGStab:  Solving for ILambda_120_0, Initial residual = 5.31668882933e-16, Final residual = 3.77653176415e-61, No Iterations 14
DILUPBiCGStab:  Solving for ILambda_121_0, Initial residual = 5.6324584964e-16, Final residual = 4.95101659574e-62, No Iterations 18
DILUPBiCGStab:  Solving for ILambda_122_0, Initial residual = 5.94654217316e-16, Final residual = 6.86763398355e-61, No Iterations 20
DILUPBiCGStab:  Solving for ILambda_123_0, Initial residual = 5.44754343129e-16, Final residual = 7.70126880968e-62, No Iterations 21
DILUPBiCGStab:  Solving for ILambda_124_0, Initial residual = 5.51579884503e-16, Final residual = 6.40336012065e-61, No Iterations 21
DILUPBiCGStab:  Solving for ILambda_125_0, Initial residual = 5.78871172641e-16, Final residual = 9.05674863081e-62, No Iterations 21
DILUPBiCGStab:  Solving for ILambda_126_0, Initial residual = 5.82428068305e-16, Final residual = 5.39558452116e-62, No Iterations 20
DILUPBiCGStab:  Solving for ILambda_127_0, Initial residual = 5.34246816488e-16, Final residual = 3.67784861068e-62, No Iterations 17
min/max(T) = 1000, 1000
ExecutionTime = 138.23 s  ClockTime = 138 s

writeObjects writeObjects1.writeObjects write:
    writing object a
    writing object qem
End

