/*---------------------------------------------------------------------------*\
| =========                 |                                                 |
| \\      /  F ield         | OpenFOAM: The Open Source CFD Toolbox           |
|  \\    /   O peration     | Version:  2306                                  |
|   \\  /    A nd           | Website:  www.openfoam.com                      |
|    \\/     M anipulation  |                                                 |
\*---------------------------------------------------------------------------*/
Build  : _fbf00d6b-20230626 OPENFOAM=2306 version=2306
Arch   : "LSB;label=32;scalar=64"
Exec   : fireRADFoam_MaCFP
Date   : Mar 13 2024
Time   : 02:18:30
Host   : pop-os
PID    : 198902
I/O    : uncollated
Case   : /home/rafay/Desktop/Study/Radiative_Heat_Transfer/Local_copy_RHT2324/01_Projects/02_Rafay/Case_1_q1D_SolidAngle/new_case3/th_4-ph_8/tau_1/res_8
nProcs : 1
trapFpe: Floating point exception trapping enabled (FOAM_SIGFPE).
fileModificationChecking : Monitoring run-time modified files using timeStampMaster (fileModificationSkew 5, maxFileModificationPolls 20)
allowSystemOperations : Allowing user-supplied system call operations

// * * * * * * * * * * * * * * * * * * * * * * * * * * * * * * * * * * * * * //
Create time

Create mesh for time = 0


PIMPLE: no residual control data found. Calculations will employ 10 corrector loops

Reading thermophysical properties

Selecting thermodynamics package 
{
    type            hePsiThermo;
    mixture         singleStepReactingMixture;
    transport       sutherland;
    thermo          janaf;
    energy          sensibleEnthalpy;
    equationOfState perfectGas;
    specie          specie;
}

Selecting chemistryReader foamChemistryReader
    elements not defined in "/home/rafay/Desktop/Study/Radiative_Heat_Transfer/Local_copy_RHT2324/01_Projects/02_Rafay/Case_1_q1D_SolidAngle/new_case3/th_4-ph_8/tau_1/res_8/constant/reactions"
Fuel heat of combustion :47168962.4726
stoichiometric air-fuel ratio :14.6914056505
stoichiometric oxygen-fuel ratio :3.42181919285
Maximum products mass concentrations:
    H2O: 0.0818486943001
    CO2: 0.199950099979
    N2: 0.718201205721
Creating component thermo properties:
    multi-component carrier - 6 species
    no liquid components
    no solid components
Creating field rho


Reading field U

Reading/calculating face flux field phi

Selecting radiationModel fvDOM
Selecting absorptionEmissionModel constantAbsorptionEmission
Selecting scatterModel none
Selecting sootModel none
fvDOM : Allocated 128 rays with average orientation:
	I0 : dAve : 	(0.00274192284156 0.0278392098 0.0490873852123) : omega : 	0.0575094490319 : d : 	(0.0375095356919 0.38084070704 0.923879532511)
	I1 : dAve : 	(0.00812039796756 0.0267693645798 0.0490873852123) : omega : 	0.0575094490319 : d : 	(0.111087136655 0.366205212247 0.923879532511)
	I2 : dAve : 	(0.0131868107536 0.0246707876912 0.0490873852123) : omega : 	0.0575094490319 : d : 	(0.180395721254 0.337496656517 0.923879532511)
	I3 : dAve : 	(0.0177464617977 0.0216241262672 0.0490873852123) : omega : 	0.0575094490319 : d : 	(0.242771799453 0.295818293547 0.923879532511)
	I4 : dAve : 	(0.0216241262672 0.0177464617977 0.0490873852123) : omega : 	0.0575094490319 : d : 	(0.295818293547 0.242771799453 0.923879532511)
	I5 : dAve : 	(0.0246707876912 0.0131868107536 0.0490873852123) : omega : 	0.0575094490319 : d : 	(0.337496656517 0.180395721254 0.923879532511)
	I6 : dAve : 	(0.0267693645798 0.00812039796756 0.0490873852123) : omega : 	0.0575094490319 : d : 	(0.366205212247 0.111087136655 0.923879532511)
	I7 : dAve : 	(0.0278392098 0.00274192284156 0.0490873852123) : omega : 	0.0575094490319 : d : 	(0.38084070704 0.0375095356919 0.923879532511)
	I8 : dAve : 	(0.0278392098 -0.00274192284156 0.0490873852123) : omega : 	0.0575094490319 : d : 	(0.38084070704 -0.0375095356919 0.923879532511)
	I9 : dAve : 	(0.0267693645798 -0.00812039796756 0.0490873852123) : omega : 	0.0575094490319 : d : 	(0.366205212247 -0.111087136655 0.923879532511)
	I10 : dAve : 	(0.0246707876912 -0.0131868107536 0.0490873852123) : omega : 	0.0575094490319 : d : 	(0.337496656517 -0.180395721254 0.923879532511)
	I11 : dAve : 	(0.0216241262672 -0.0177464617977 0.0490873852123) : omega : 	0.0575094490319 : d : 	(0.295818293547 -0.242771799453 0.923879532511)
	I12 : dAve : 	(0.0177464617977 -0.0216241262672 0.0490873852123) : omega : 	0.0575094490319 : d : 	(0.242771799453 -0.295818293547 0.923879532511)
	I13 : dAve : 	(0.0131868107536 -0.0246707876912 0.0490873852123) : omega : 	0.0575094490319 : d : 	(0.180395721254 -0.337496656517 0.923879532511)
	I14 : dAve : 	(0.00812039796756 -0.0267693645798 0.0490873852123) : omega : 	0.0575094490319 : d : 	(0.111087136655 -0.366205212247 0.923879532511)
	I15 : dAve : 	(0.00274192284156 -0.0278392098 0.0490873852123) : omega : 	0.0575094490319 : d : 	(0.0375095356919 -0.38084070704 0.923879532511)
	I16 : dAve : 	(-0.00274192284156 -0.0278392098 0.0490873852123) : omega : 	0.0575094490319 : d : 	(-0.0375095356919 -0.38084070704 0.923879532511)
	I17 : dAve : 	(-0.00812039796756 -0.0267693645798 0.0490873852123) : omega : 	0.0575094490319 : d : 	(-0.111087136655 -0.366205212247 0.923879532511)
	I18 : dAve : 	(-0.0131868107536 -0.0246707876912 0.0490873852123) : omega : 	0.0575094490319 : d : 	(-0.180395721254 -0.337496656517 0.923879532511)
	I19 : dAve : 	(-0.0177464617977 -0.0216241262672 0.0490873852123) : omega : 	0.0575094490319 : d : 	(-0.242771799453 -0.295818293547 0.923879532511)
	I20 : dAve : 	(-0.0216241262672 -0.0177464617977 0.0490873852123) : omega : 	0.0575094490319 : d : 	(-0.295818293547 -0.242771799453 0.923879532511)
	I21 : dAve : 	(-0.0246707876912 -0.0131868107536 0.0490873852123) : omega : 	0.0575094490319 : d : 	(-0.337496656517 -0.180395721254 0.923879532511)
	I22 : dAve : 	(-0.0267693645798 -0.00812039796756 0.0490873852123) : omega : 	0.0575094490319 : d : 	(-0.366205212247 -0.111087136655 0.923879532511)
	I23 : dAve : 	(-0.0278392098 -0.00274192284156 0.0490873852123) : omega : 	0.0575094490319 : d : 	(-0.38084070704 -0.0375095356919 0.923879532511)
	I24 : dAve : 	(-0.0278392098 0.00274192284156 0.0490873852123) : omega : 	0.0575094490319 : d : 	(-0.38084070704 0.0375095356919 0.923879532511)
	I25 : dAve : 	(-0.0267693645798 0.00812039796756 0.0490873852123) : omega : 	0.0575094490319 : d : 	(-0.366205212247 0.111087136655 0.923879532511)
	I26 : dAve : 	(-0.0246707876912 0.0131868107536 0.0490873852123) : omega : 	0.0575094490319 : d : 	(-0.337496656517 0.180395721254 0.923879532511)
	I27 : dAve : 	(-0.0216241262672 0.0177464617977 0.0490873852123) : omega : 	0.0575094490319 : d : 	(-0.295818293547 0.242771799453 0.923879532511)
	I28 : dAve : 	(-0.0177464617977 0.0216241262672 0.0490873852123) : omega : 	0.0575094490319 : d : 	(-0.242771799453 0.295818293547 0.923879532511)
	I29 : dAve : 	(-0.0131868107536 0.0246707876912 0.0490873852123) : omega : 	0.0575094490319 : d : 	(-0.180395721254 0.337496656517 0.923879532511)
	I30 : dAve : 	(-0.00812039796756 0.0267693645798 0.0490873852123) : omega : 	0.0575094490319 : d : 	(-0.111087136655 0.366205212247 0.923879532511)
	I31 : dAve : 	(-0.00274192284156 0.0278392098 0.0490873852123) : omega : 	0.0575094490319 : d : 	(-0.0375095356919 0.38084070704 0.923879532511)
	I32 : dAve : 	(0.0123492826399 0.125384370808 0.0490873852123) : omega : 	0.138840091817 : d : 	(0.0905560297858 0.91943080004 0.382683432365)
	I33 : dAve : 	(0.0365732719135 0.120565919754 0.0490873852123) : omega : 	0.138840091817 : d : 	(0.268188071917 0.884097590017 0.382683432365)
	I34 : dAve : 	(0.059391770858 0.111114188018 0.0490873852123) : omega : 	0.138840091817 : d : 	(0.435513796846 0.814789005418 0.382683432365)
	I35 : dAve : 	(0.0799278773557 0.0973924003507 0.0490873852123) : omega : 	0.138840091817 : d : 	(0.586102970801 0.714168536279 0.382683432365)
	I36 : dAve : 	(0.0973924003507 0.0799278773557 0.0490873852123) : omega : 	0.138840091817 : d : 	(0.714168536279 0.586102970801 0.382683432365)
	I37 : dAve : 	(0.111114188018 0.059391770858 0.0490873852123) : omega : 	0.138840091817 : d : 	(0.814789005418 0.435513796846 0.382683432365)
	I38 : dAve : 	(0.120565919754 0.0365732719135 0.0490873852123) : omega : 	0.138840091817 : d : 	(0.884097590017 0.268188071917 0.382683432365)
	I39 : dAve : 	(0.125384370808 0.0123492826399 0.0490873852123) : omega : 	0.138840091817 : d : 	(0.91943080004 0.0905560297858 0.382683432365)
	I40 : dAve : 	(0.125384370808 -0.0123492826399 0.0490873852123) : omega : 	0.138840091817 : d : 	(0.91943080004 -0.0905560297858 0.382683432365)
	I41 : dAve : 	(0.120565919754 -0.0365732719135 0.0490873852123) : omega : 	0.138840091817 : d : 	(0.884097590017 -0.268188071917 0.382683432365)
	I42 : dAve : 	(0.111114188018 -0.059391770858 0.0490873852123) : omega : 	0.138840091817 : d : 	(0.814789005418 -0.435513796846 0.382683432365)
	I43 : dAve : 	(0.0973924003507 -0.0799278773557 0.0490873852123) : omega : 	0.138840091817 : d : 	(0.714168536279 -0.586102970801 0.382683432365)
	I44 : dAve : 	(0.0799278773557 -0.0973924003507 0.0490873852123) : omega : 	0.138840091817 : d : 	(0.586102970801 -0.714168536279 0.382683432365)
	I45 : dAve : 	(0.059391770858 -0.111114188018 0.0490873852123) : omega : 	0.138840091817 : d : 	(0.435513796846 -0.814789005418 0.382683432365)
	I46 : dAve : 	(0.0365732719135 -0.120565919754 0.0490873852123) : omega : 	0.138840091817 : d : 	(0.268188071917 -0.884097590017 0.382683432365)
	I47 : dAve : 	(0.0123492826399 -0.125384370808 0.0490873852123) : omega : 	0.138840091817 : d : 	(0.0905560297858 -0.91943080004 0.382683432365)
	I48 : dAve : 	(-0.0123492826399 -0.125384370808 0.0490873852123) : omega : 	0.138840091817 : d : 	(-0.0905560297858 -0.91943080004 0.382683432365)
	I49 : dAve : 	(-0.0365732719135 -0.120565919754 0.0490873852123) : omega : 	0.138840091817 : d : 	(-0.268188071917 -0.884097590017 0.382683432365)
	I50 : dAve : 	(-0.059391770858 -0.111114188018 0.0490873852123) : omega : 	0.138840091817 : d : 	(-0.435513796846 -0.814789005418 0.382683432365)
	I51 : dAve : 	(-0.0799278773557 -0.0973924003507 0.0490873852123) : omega : 	0.138840091817 : d : 	(-0.586102970801 -0.714168536279 0.382683432365)
	I52 : dAve : 	(-0.0973924003507 -0.0799278773557 0.0490873852123) : omega : 	0.138840091817 : d : 	(-0.714168536279 -0.586102970801 0.382683432365)
	I53 : dAve : 	(-0.111114188018 -0.059391770858 0.0490873852123) : omega : 	0.138840091817 : d : 	(-0.814789005418 -0.435513796846 0.382683432365)
	I54 : dAve : 	(-0.120565919754 -0.0365732719135 0.0490873852123) : omega : 	0.138840091817 : d : 	(-0.884097590017 -0.268188071917 0.382683432365)
	I55 : dAve : 	(-0.125384370808 -0.0123492826399 0.0490873852123) : omega : 	0.138840091817 : d : 	(-0.91943080004 -0.0905560297858 0.382683432365)
	I56 : dAve : 	(-0.125384370808 0.0123492826399 0.0490873852123) : omega : 	0.138840091817 : d : 	(-0.91943080004 0.0905560297858 0.382683432365)
	I57 : dAve : 	(-0.120565919754 0.0365732719135 0.0490873852123) : omega : 	0.138840091817 : d : 	(-0.884097590017 0.268188071917 0.382683432365)
	I58 : dAve : 	(-0.111114188018 0.059391770858 0.0490873852123) : omega : 	0.138840091817 : d : 	(-0.814789005418 0.435513796846 0.382683432365)
	I59 : dAve : 	(-0.0973924003507 0.0799278773557 0.0490873852123) : omega : 	0.138840091817 : d : 	(-0.714168536279 0.586102970801 0.382683432365)
	I60 : dAve : 	(-0.0799278773557 0.0973924003507 0.0490873852123) : omega : 	0.138840091817 : d : 	(-0.586102970801 0.714168536279 0.382683432365)
	I61 : dAve : 	(-0.059391770858 0.111114188018 0.0490873852123) : omega : 	0.138840091817 : d : 	(-0.435513796846 0.814789005418 0.382683432365)
	I62 : dAve : 	(-0.0365732719135 0.120565919754 0.0490873852123) : omega : 	0.138840091817 : d : 	(-0.268188071917 0.884097590017 0.382683432365)
	I63 : dAve : 	(-0.0123492826399 0.125384370808 0.0490873852123) : omega : 	0.138840091817 : d : 	(-0.0905560297858 0.91943080004 0.382683432365)
	I64 : dAve : 	(0.0123492826399 0.125384370808 -0.0490873852123) : omega : 	0.138840091817 : d : 	(0.0905560297858 0.91943080004 -0.382683432365)
	I65 : dAve : 	(0.0365732719135 0.120565919754 -0.0490873852123) : omega : 	0.138840091817 : d : 	(0.268188071917 0.884097590017 -0.382683432365)
	I66 : dAve : 	(0.059391770858 0.111114188018 -0.0490873852123) : omega : 	0.138840091817 : d : 	(0.435513796846 0.814789005418 -0.382683432365)
	I67 : dAve : 	(0.0799278773557 0.0973924003507 -0.0490873852123) : omega : 	0.138840091817 : d : 	(0.586102970801 0.714168536279 -0.382683432365)
	I68 : dAve : 	(0.0973924003507 0.0799278773557 -0.0490873852123) : omega : 	0.138840091817 : d : 	(0.714168536279 0.586102970801 -0.382683432365)
	I69 : dAve : 	(0.111114188018 0.059391770858 -0.0490873852123) : omega : 	0.138840091817 : d : 	(0.814789005418 0.435513796846 -0.382683432365)
	I70 : dAve : 	(0.120565919754 0.0365732719135 -0.0490873852123) : omega : 	0.138840091817 : d : 	(0.884097590017 0.268188071917 -0.382683432365)
	I71 : dAve : 	(0.125384370808 0.0123492826399 -0.0490873852123) : omega : 	0.138840091817 : d : 	(0.91943080004 0.0905560297858 -0.382683432365)
	I72 : dAve : 	(0.125384370808 -0.0123492826399 -0.0490873852123) : omega : 	0.138840091817 : d : 	(0.91943080004 -0.0905560297858 -0.382683432365)
	I73 : dAve : 	(0.120565919754 -0.0365732719135 -0.0490873852123) : omega : 	0.138840091817 : d : 	(0.884097590017 -0.268188071917 -0.382683432365)
	I74 : dAve : 	(0.111114188018 -0.059391770858 -0.0490873852123) : omega : 	0.138840091817 : d : 	(0.814789005418 -0.435513796846 -0.382683432365)
	I75 : dAve : 	(0.0973924003507 -0.0799278773557 -0.0490873852123) : omega : 	0.138840091817 : d : 	(0.714168536279 -0.586102970801 -0.382683432365)
	I76 : dAve : 	(0.0799278773557 -0.0973924003507 -0.0490873852123) : omega : 	0.138840091817 : d : 	(0.586102970801 -0.714168536279 -0.382683432365)
	I77 : dAve : 	(0.059391770858 -0.111114188018 -0.0490873852123) : omega : 	0.138840091817 : d : 	(0.435513796846 -0.814789005418 -0.382683432365)
	I78 : dAve : 	(0.0365732719135 -0.120565919754 -0.0490873852123) : omega : 	0.138840091817 : d : 	(0.268188071917 -0.884097590017 -0.382683432365)
	I79 : dAve : 	(0.0123492826399 -0.125384370808 -0.0490873852123) : omega : 	0.138840091817 : d : 	(0.0905560297858 -0.91943080004 -0.382683432365)
	I80 : dAve : 	(-0.0123492826399 -0.125384370808 -0.0490873852123) : omega : 	0.138840091817 : d : 	(-0.0905560297858 -0.91943080004 -0.382683432365)
	I81 : dAve : 	(-0.0365732719135 -0.120565919754 -0.0490873852123) : omega : 	0.138840091817 : d : 	(-0.268188071917 -0.884097590017 -0.382683432365)
	I82 : dAve : 	(-0.059391770858 -0.111114188018 -0.0490873852123) : omega : 	0.138840091817 : d : 	(-0.435513796846 -0.814789005418 -0.382683432365)
	I83 : dAve : 	(-0.0799278773557 -0.0973924003507 -0.0490873852123) : omega : 	0.138840091817 : d : 	(-0.586102970801 -0.714168536279 -0.382683432365)
	I84 : dAve : 	(-0.0973924003507 -0.0799278773557 -0.0490873852123) : omega : 	0.138840091817 : d : 	(-0.714168536279 -0.586102970801 -0.382683432365)
	I85 : dAve : 	(-0.111114188018 -0.059391770858 -0.0490873852123) : omega : 	0.138840091817 : d : 	(-0.814789005418 -0.435513796846 -0.382683432365)
	I86 : dAve : 	(-0.120565919754 -0.0365732719135 -0.0490873852123) : omega : 	0.138840091817 : d : 	(-0.884097590017 -0.268188071917 -0.382683432365)
	I87 : dAve : 	(-0.125384370808 -0.0123492826399 -0.0490873852123) : omega : 	0.138840091817 : d : 	(-0.91943080004 -0.0905560297858 -0.382683432365)
	I88 : dAve : 	(-0.125384370808 0.0123492826399 -0.0490873852123) : omega : 	0.138840091817 : d : 	(-0.91943080004 0.0905560297858 -0.382683432365)
	I89 : dAve : 	(-0.120565919754 0.0365732719135 -0.0490873852123) : omega : 	0.138840091817 : d : 	(-0.884097590017 0.268188071917 -0.382683432365)
	I90 : dAve : 	(-0.111114188018 0.059391770858 -0.0490873852123) : omega : 	0.138840091817 : d : 	(-0.814789005418 0.435513796846 -0.382683432365)
	I91 : dAve : 	(-0.0973924003507 0.0799278773557 -0.0490873852123) : omega : 	0.138840091817 : d : 	(-0.714168536279 0.586102970801 -0.382683432365)
	I92 : dAve : 	(-0.0799278773557 0.0973924003507 -0.0490873852123) : omega : 	0.138840091817 : d : 	(-0.586102970801 0.714168536279 -0.382683432365)
	I93 : dAve : 	(-0.059391770858 0.111114188018 -0.0490873852123) : omega : 	0.138840091817 : d : 	(-0.435513796846 0.814789005418 -0.382683432365)
	I94 : dAve : 	(-0.0365732719135 0.120565919754 -0.0490873852123) : omega : 	0.138840091817 : d : 	(-0.268188071917 0.884097590017 -0.382683432365)
	I95 : dAve : 	(-0.0123492826399 0.125384370808 -0.0490873852123) : omega : 	0.138840091817 : d : 	(-0.0905560297858 0.91943080004 -0.382683432365)
	I96 : dAve : 	(0.00274192284156 0.0278392098 -0.0490873852123) : omega : 	0.0575094490319 : d : 	(0.0375095356919 0.38084070704 -0.923879532511)
	I97 : dAve : 	(0.00812039796756 0.0267693645798 -0.0490873852123) : omega : 	0.0575094490319 : d : 	(0.111087136655 0.366205212247 -0.923879532511)
	I98 : dAve : 	(0.0131868107536 0.0246707876912 -0.0490873852123) : omega : 	0.0575094490319 : d : 	(0.180395721254 0.337496656517 -0.923879532511)
	I99 : dAve : 	(0.0177464617977 0.0216241262672 -0.0490873852123) : omega : 	0.0575094490319 : d : 	(0.242771799453 0.295818293547 -0.923879532511)
	I100 : dAve : 	(0.0216241262672 0.0177464617977 -0.0490873852123) : omega : 	0.0575094490319 : d : 	(0.295818293547 0.242771799453 -0.923879532511)
	I101 : dAve : 	(0.0246707876912 0.0131868107536 -0.0490873852123) : omega : 	0.0575094490319 : d : 	(0.337496656517 0.180395721254 -0.923879532511)
	I102 : dAve : 	(0.0267693645798 0.00812039796756 -0.0490873852123) : omega : 	0.0575094490319 : d : 	(0.366205212247 0.111087136655 -0.923879532511)
	I103 : dAve : 	(0.0278392098 0.00274192284156 -0.0490873852123) : omega : 	0.0575094490319 : d : 	(0.38084070704 0.0375095356919 -0.923879532511)
	I104 : dAve : 	(0.0278392098 -0.00274192284156 -0.0490873852123) : omega : 	0.0575094490319 : d : 	(0.38084070704 -0.0375095356919 -0.923879532511)
	I105 : dAve : 	(0.0267693645798 -0.00812039796756 -0.0490873852123) : omega : 	0.0575094490319 : d : 	(0.366205212247 -0.111087136655 -0.923879532511)
	I106 : dAve : 	(0.0246707876912 -0.0131868107536 -0.0490873852123) : omega : 	0.0575094490319 : d : 	(0.337496656517 -0.180395721254 -0.923879532511)
	I107 : dAve : 	(0.0216241262672 -0.0177464617977 -0.0490873852123) : omega : 	0.0575094490319 : d : 	(0.295818293547 -0.242771799453 -0.923879532511)
	I108 : dAve : 	(0.0177464617977 -0.0216241262672 -0.0490873852123) : omega : 	0.0575094490319 : d : 	(0.242771799453 -0.295818293547 -0.923879532511)
	I109 : dAve : 	(0.0131868107536 -0.0246707876912 -0.0490873852123) : omega : 	0.0575094490319 : d : 	(0.180395721254 -0.337496656517 -0.923879532511)
	I110 : dAve : 	(0.00812039796756 -0.0267693645798 -0.0490873852123) : omega : 	0.0575094490319 : d : 	(0.111087136655 -0.366205212247 -0.923879532511)
	I111 : dAve : 	(0.00274192284156 -0.0278392098 -0.0490873852123) : omega : 	0.0575094490319 : d : 	(0.0375095356919 -0.38084070704 -0.923879532511)
	I112 : dAve : 	(-0.00274192284156 -0.0278392098 -0.0490873852123) : omega : 	0.0575094490319 : d : 	(-0.0375095356919 -0.38084070704 -0.923879532511)
	I113 : dAve : 	(-0.00812039796756 -0.0267693645798 -0.0490873852123) : omega : 	0.0575094490319 : d : 	(-0.111087136655 -0.366205212247 -0.923879532511)
	I114 : dAve : 	(-0.0131868107536 -0.0246707876912 -0.0490873852123) : omega : 	0.0575094490319 : d : 	(-0.180395721254 -0.337496656517 -0.923879532511)
	I115 : dAve : 	(-0.0177464617977 -0.0216241262672 -0.0490873852123) : omega : 	0.0575094490319 : d : 	(-0.242771799453 -0.295818293547 -0.923879532511)
	I116 : dAve : 	(-0.0216241262672 -0.0177464617977 -0.0490873852123) : omega : 	0.0575094490319 : d : 	(-0.295818293547 -0.242771799453 -0.923879532511)
	I117 : dAve : 	(-0.0246707876912 -0.0131868107536 -0.0490873852123) : omega : 	0.0575094490319 : d : 	(-0.337496656517 -0.180395721254 -0.923879532511)
	I118 : dAve : 	(-0.0267693645798 -0.00812039796756 -0.0490873852123) : omega : 	0.0575094490319 : d : 	(-0.366205212247 -0.111087136655 -0.923879532511)
	I119 : dAve : 	(-0.0278392098 -0.00274192284156 -0.0490873852123) : omega : 	0.0575094490319 : d : 	(-0.38084070704 -0.0375095356919 -0.923879532511)
	I120 : dAve : 	(-0.0278392098 0.00274192284156 -0.0490873852123) : omega : 	0.0575094490319 : d : 	(-0.38084070704 0.0375095356919 -0.923879532511)
	I121 : dAve : 	(-0.0267693645798 0.00812039796756 -0.0490873852123) : omega : 	0.0575094490319 : d : 	(-0.366205212247 0.111087136655 -0.923879532511)
	I122 : dAve : 	(-0.0246707876912 0.0131868107536 -0.0490873852123) : omega : 	0.0575094490319 : d : 	(-0.337496656517 0.180395721254 -0.923879532511)
	I123 : dAve : 	(-0.0216241262672 0.0177464617977 -0.0490873852123) : omega : 	0.0575094490319 : d : 	(-0.295818293547 0.242771799453 -0.923879532511)
	I124 : dAve : 	(-0.0177464617977 0.0216241262672 -0.0490873852123) : omega : 	0.0575094490319 : d : 	(-0.242771799453 0.295818293547 -0.923879532511)
	I125 : dAve : 	(-0.0131868107536 0.0246707876912 -0.0490873852123) : omega : 	0.0575094490319 : d : 	(-0.180395721254 0.337496656517 -0.923879532511)
	I126 : dAve : 	(-0.00812039796756 0.0267693645798 -0.0490873852123) : omega : 	0.0575094490319 : d : 	(-0.111087136655 0.366205212247 -0.923879532511)
	I127 : dAve : 	(-0.00274192284156 0.0278392098 -0.0490873852123) : omega : 	0.0575094490319 : d : 	(-0.0375095356919 0.38084070704 -0.923879532511)
Total omega : 12.5663706144

Courant Number mean: 0 max: 0

Starting time loop

Sampled set:
    data -> csv

Sampled set:
    data -> csv

Sampled surface:
    yNormal -> ensight
        sampledCuttingPlane: yNormal : plane:(0 1 0) (0 0 0) offsets:(0)

Sampled surface:
    zNormal -> ensight
        sampledCuttingPlane: zNormal : plane:(0 0 1) (0 0 0) offsets:(0)

Sampled surface:
    patchAll -> ensight
        sampledPatch: patchAll : patches:(".*WW.*")

deltaT = 1
Time = 1

PIMPLE: iteration 1
Radiation solver iter: 0
DILUPBiCGStab:  Solving for ILambda_0_0, Initial residual = 1, Final residual = 8.94616300563e-62, No Iterations 2
DILUPBiCGStab:  Solving for ILambda_1_0, Initial residual = 1, Final residual = 1.8117347604e-61, No Iterations 2
DILUPBiCGStab:  Solving for ILambda_2_0, Initial residual = 1, Final residual = 2.03279249778e-61, No Iterations 2
DILUPBiCGStab:  Solving for ILambda_3_0, Initial residual = 1, Final residual = 2.42063434239e-61, No Iterations 2
DILUPBiCGStab:  Solving for ILambda_4_0, Initial residual = 1, Final residual = 3.56584840768e-61, No Iterations 2
DILUPBiCGStab:  Solving for ILambda_5_0, Initial residual = 1, Final residual = 1.93646800178e-61, No Iterations 2
DILUPBiCGStab:  Solving for ILambda_6_0, Initial residual = 1, Final residual = 3.56745668416e-61, No Iterations 2
DILUPBiCGStab:  Solving for ILambda_7_0, Initial residual = 1, Final residual = 1.1263391605e-61, No Iterations 2
DILUPBiCGStab:  Solving for ILambda_8_0, Initial residual = 1, Final residual = 8.31959847572e-61, No Iterations 60
DILUPBiCGStab:  Solving for ILambda_9_0, Initial residual = 1, Final residual = 2.63280931917e-61, No Iterations 99
DILUPBiCGStab:  Solving for ILambda_10_0, Initial residual = 1, Final residual = 4.50272691522e-61, No Iterations 120
DILUPBiCGStab:  Solving for ILambda_11_0, Initial residual = 1, Final residual = 1.73350986332e-61, No Iterations 124
DILUPBiCGStab:  Solving for ILambda_12_0, Initial residual = 1, Final residual = 9.15001407899e-61, No Iterations 124
DILUPBiCGStab:  Solving for ILambda_13_0, Initial residual = 1, Final residual = 6.51825091357e-61, No Iterations 117
DILUPBiCGStab:  Solving for ILambda_14_0, Initial residual = 1, Final residual = 4.71015645291e-61, No Iterations 95
DILUPBiCGStab:  Solving for ILambda_15_0, Initial residual = 1, Final residual = 8.10738467974e-61, No Iterations 61
DILUPBiCGStab:  Solving for ILambda_16_0, Initial residual = 1, Final residual = 7.96088259935e-61, No Iterations 43
DILUPBiCGStab:  Solving for ILambda_17_0, Initial residual = 1, Final residual = 1.69423686472e-61, No Iterations 43
DILUPBiCGStab:  Solving for ILambda_18_0, Initial residual = 1, Final residual = 2.6673215203e-61, No Iterations 45
DILUPBiCGStab:  Solving for ILambda_19_0, Initial residual = 1, Final residual = 8.10342303993e-61, No Iterations 46
DILUPBiCGStab:  Solving for ILambda_20_0, Initial residual = 1, Final residual = 1.37580830411e-61, No Iterations 46
DILUPBiCGStab:  Solving for ILambda_21_0, Initial residual = 1, Final residual = 2.06980852381e-61, No Iterations 45
DILUPBiCGStab:  Solving for ILambda_22_0, Initial residual = 1, Final residual = 3.14352138078e-61, No Iterations 43
DILUPBiCGStab:  Solving for ILambda_23_0, Initial residual = 1, Final residual = 7.35417039258e-62, No Iterations 44
DILUPBiCGStab:  Solving for ILambda_24_0, Initial residual = 1, Final residual = 4.98836351047e-62, No Iterations 62
DILUPBiCGStab:  Solving for ILambda_25_0, Initial residual = 1, Final residual = 8.93608770503e-61, No Iterations 94
DILUPBiCGStab:  Solving for ILambda_26_0, Initial residual = 1, Final residual = 9.02741447098e-61, No Iterations 117
DILUPBiCGStab:  Solving for ILambda_27_0, Initial residual = 1, Final residual = 1.03083665047e-61, No Iterations 124
DILUPBiCGStab:  Solving for ILambda_28_0, Initial residual = 1, Final residual = 7.06001020401e-61, No Iterations 124
DILUPBiCGStab:  Solving for ILambda_29_0, Initial residual = 1, Final residual = 4.7566533308e-61, No Iterations 119
DILUPBiCGStab:  Solving for ILambda_30_0, Initial residual = 1, Final residual = 9.40435292565e-61, No Iterations 97
DILUPBiCGStab:  Solving for ILambda_31_0, Initial residual = 1, Final residual = 7.15102716823e-61, No Iterations 59
DILUPBiCGStab:  Solving for ILambda_32_0, Initial residual = 1, Final residual = 4.49920264838e-61, No Iterations 2
DILUPBiCGStab:  Solving for ILambda_33_0, Initial residual = 1, Final residual = 1.93440126125e-61, No Iterations 2
DILUPBiCGStab:  Solving for ILambda_34_0, Initial residual = 1, Final residual = 2.47468007937e-61, No Iterations 2
DILUPBiCGStab:  Solving for ILambda_35_0, Initial residual = 1, Final residual = 6.039034745e-61, No Iterations 2
DILUPBiCGStab:  Solving for ILambda_36_0, Initial residual = 1, Final residual = 3.99012695077e-61, No Iterations 2
DILUPBiCGStab:  Solving for ILambda_37_0, Initial residual = 1, Final residual = 1.90596435012e-61, No Iterations 2
DILUPBiCGStab:  Solving for ILambda_38_0, Initial residual = 1, Final residual = 1.59449344853e-61, No Iterations 2
DILUPBiCGStab:  Solving for ILambda_39_0, Initial residual = 1, Final residual = 4.77487366513e-61, No Iterations 2
DILUPBiCGStab:  Solving for ILambda_40_0, Initial residual = 1, Final residual = 6.79068301435e-61, No Iterations 69
DILUPBiCGStab:  Solving for ILambda_41_0, Initial residual = 1, Final residual = 5.8805754e-61, No Iterations 110
DILUPBiCGStab:  Solving for ILambda_42_0, Initial residual = 1, Final residual = 5.48052135254e-61, No Iterations 133
DILUPBiCGStab:  Solving for ILambda_43_0, Initial residual = 1, Final residual = 2.81023008433e-61, No Iterations 139
DILUPBiCGStab:  Solving for ILambda_44_0, Initial residual = 1, Final residual = 3.16644685152e-61, No Iterations 142
DILUPBiCGStab:  Solving for ILambda_45_0, Initial residual = 1, Final residual = 3.60642168295e-61, No Iterations 135
DILUPBiCGStab:  Solving for ILambda_46_0, Initial residual = 1, Final residual = 4.93121155243e-61, No Iterations 107
DILUPBiCGStab:  Solving for ILambda_47_0, Initial residual = 1, Final residual = 2.57055713707e-61, No Iterations 74
DILUPBiCGStab:  Solving for ILambda_48_0, Initial residual = 1, Final residual = 7.52893565725e-61, No Iterations 52
DILUPBiCGStab:  Solving for ILambda_49_0, Initial residual = 1, Final residual = 8.00100200487e-61, No Iterations 55
DILUPBiCGStab:  Solving for ILambda_50_0, Initial residual = 1, Final residual = 1.53021190518e-61, No Iterations 57
DILUPBiCGStab:  Solving for ILambda_51_0, Initial residual = 1, Final residual = 9.71493194158e-61, No Iterations 58
DILUPBiCGStab:  Solving for ILambda_52_0, Initial residual = 1, Final residual = 4.5282136413e-61, No Iterations 58
DILUPBiCGStab:  Solving for ILambda_53_0, Initial residual = 1, Final residual = 3.60184790972e-61, No Iterations 57
DILUPBiCGStab:  Solving for ILambda_54_0, Initial residual = 1, Final residual = 8.42883615111e-61, No Iterations 55
DILUPBiCGStab:  Solving for ILambda_55_0, Initial residual = 1, Final residual = 3.84550550944e-61, No Iterations 52
DILUPBiCGStab:  Solving for ILambda_56_0, Initial residual = 1, Final residual = 6.71565588727e-62, No Iterations 75
DILUPBiCGStab:  Solving for ILambda_57_0, Initial residual = 1, Final residual = 9.61978876809e-61, No Iterations 106
DILUPBiCGStab:  Solving for ILambda_58_0, Initial residual = 1, Final residual = 2.69886181191e-61, No Iterations 135
DILUPBiCGStab:  Solving for ILambda_59_0, Initial residual = 1, Final residual = 5.0690648539e-61, No Iterations 141
DILUPBiCGStab:  Solving for ILambda_60_0, Initial residual = 1, Final residual = 5.4388288889e-61, No Iterations 139
DILUPBiCGStab:  Solving for ILambda_61_0, Initial residual = 1, Final residual = 6.79730243109e-61, No Iterations 134
DILUPBiCGStab:  Solving for ILambda_62_0, Initial residual = 1, Final residual = 7.39600257891e-61, No Iterations 109
DILUPBiCGStab:  Solving for ILambda_63_0, Initial residual = 1, Final residual = 8.50325969826e-61, No Iterations 69
DILUPBiCGStab:  Solving for ILambda_64_0, Initial residual = 1, Final residual = 3.1716390185e-61, No Iterations 49
DILUPBiCGStab:  Solving for ILambda_65_0, Initial residual = 1, Final residual = 9.38603742159e-61, No Iterations 52
DILUPBiCGStab:  Solving for ILambda_66_0, Initial residual = 1, Final residual = 9.1774370632e-61, No Iterations 53
DILUPBiCGStab:  Solving for ILambda_67_0, Initial residual = 1, Final residual = 9.84412271654e-62, No Iterations 53
DILUPBiCGStab:  Solving for ILambda_68_0, Initial residual = 1, Final residual = 9.96777009021e-61, No Iterations 52
DILUPBiCGStab:  Solving for ILambda_69_0, Initial residual = 1, Final residual = 8.10392176092e-62, No Iterations 53
DILUPBiCGStab:  Solving for ILambda_70_0, Initial residual = 1, Final residual = 5.96324957557e-62, No Iterations 52
DILUPBiCGStab:  Solving for ILambda_71_0, Initial residual = 1, Final residual = 1.08767074192e-61, No Iterations 50
DILUPBiCGStab:  Solving for ILambda_72_0, Initial residual = 1, Final residual = 6.45117354682e-61, No Iterations 74
DILUPBiCGStab:  Solving for ILambda_73_0, Initial residual = 1, Final residual = 8.29730927746e-61, No Iterations 105
DILUPBiCGStab:  Solving for ILambda_74_0, Initial residual = 1, Final residual = 1.98316001827e-61, No Iterations 134
DILUPBiCGStab:  Solving for ILambda_75_0, Initial residual = 1, Final residual = 5.99903813833e-61, No Iterations 139
DILUPBiCGStab:  Solving for ILambda_76_0, Initial residual = 1, Final residual = 6.74916016419e-61, No Iterations 137
DILUPBiCGStab:  Solving for ILambda_77_0, Initial residual = 1, Final residual = 4.09363661008e-62, No Iterations 134
DILUPBiCGStab:  Solving for ILambda_78_0, Initial residual = 1, Final residual = 7.32258356621e-61, No Iterations 109
DILUPBiCGStab:  Solving for ILambda_79_0, Initial residual = 1, Final residual = 2.30384673513e-61, No Iterations 69
DILUPBiCGStab:  Solving for ILambda_80_0, Initial residual = 1, Final residual = 4.37412913044e-61, No Iterations 2
DILUPBiCGStab:  Solving for ILambda_81_0, Initial residual = 1, Final residual = 2.10213951044e-61, No Iterations 2
DILUPBiCGStab:  Solving for ILambda_82_0, Initial residual = 1, Final residual = 1.50991256606e-61, No Iterations 2
DILUPBiCGStab:  Solving for ILambda_83_0, Initial residual = 1, Final residual = 1.23920707054e-74, No Iterations 3
DILUPBiCGStab:  Solving for ILambda_84_0, Initial residual = 1, Final residual = 3.5238104567e-61, No Iterations 2
DILUPBiCGStab:  Solving for ILambda_85_0, Initial residual = 1, Final residual = 1.38986507882e-61, No Iterations 2
DILUPBiCGStab:  Solving for ILambda_86_0, Initial residual = 1, Final residual = 2.4841557389e-61, No Iterations 2
DILUPBiCGStab:  Solving for ILambda_87_0, Initial residual = 1, Final residual = 2.89225058771e-61, No Iterations 2
DILUPBiCGStab:  Solving for ILambda_88_0, Initial residual = 1, Final residual = 2.38981928053e-61, No Iterations 69
DILUPBiCGStab:  Solving for ILambda_89_0, Initial residual = 1, Final residual = 6.62393366534e-61, No Iterations 109
DILUPBiCGStab:  Solving for ILambda_90_0, Initial residual = 1, Final residual = 8.33373550581e-61, No Iterations 133
DILUPBiCGStab:  Solving for ILambda_91_0, Initial residual = 1, Final residual = 4.4656520448e-61, No Iterations 137
DILUPBiCGStab:  Solving for ILambda_92_0, Initial residual = 1, Final residual = 7.88626191056e-61, No Iterations 138
DILUPBiCGStab:  Solving for ILambda_93_0, Initial residual = 1, Final residual = 3.57159838836e-61, No Iterations 134
DILUPBiCGStab:  Solving for ILambda_94_0, Initial residual = 1, Final residual = 7.25009088406e-61, No Iterations 105
DILUPBiCGStab:  Solving for ILambda_95_0, Initial residual = 1, Final residual = 3.07255631969e-61, No Iterations 74
DILUPBiCGStab:  Solving for ILambda_96_0, Initial residual = 1, Final residual = 5.91209500468e-61, No Iterations 42
DILUPBiCGStab:  Solving for ILambda_97_0, Initial residual = 1, Final residual = 2.03124393073e-61, No Iterations 43
DILUPBiCGStab:  Solving for ILambda_98_0, Initial residual = 1, Final residual = 5.79705977789e-61, No Iterations 43
DILUPBiCGStab:  Solving for ILambda_99_0, Initial residual = 1, Final residual = 1.47067295887e-61, No Iterations 44
DILUPBiCGStab:  Solving for ILambda_100_0, Initial residual = 1, Final residual = 7.86292867268e-61, No Iterations 43
DILUPBiCGStab:  Solving for ILambda_101_0, Initial residual = 1, Final residual = 8.14392068216e-61, No Iterations 43
DILUPBiCGStab:  Solving for ILambda_102_0, Initial residual = 1, Final residual = 9.28753588345e-61, No Iterations 43
DILUPBiCGStab:  Solving for ILambda_103_0, Initial residual = 1, Final residual = 7.23293150591e-61, No Iterations 42
DILUPBiCGStab:  Solving for ILambda_104_0, Initial residual = 1, Final residual = 7.40957950768e-61, No Iterations 62
DILUPBiCGStab:  Solving for ILambda_105_0, Initial residual = 1, Final residual = 5.47628317359e-61, No Iterations 95
DILUPBiCGStab:  Solving for ILambda_106_0, Initial residual = 1, Final residual = 3.13635593989e-61, No Iterations 119
DILUPBiCGStab:  Solving for ILambda_107_0, Initial residual = 1, Final residual = 1.74085000814e-62, No Iterations 125
DILUPBiCGStab:  Solving for ILambda_108_0, Initial residual = 1, Final residual = 5.71732238477e-61, No Iterations 124
DILUPBiCGStab:  Solving for ILambda_109_0, Initial residual = 1, Final residual = 3.5848161516e-61, No Iterations 120
DILUPBiCGStab:  Solving for ILambda_110_0, Initial residual = 1, Final residual = 7.59883657806e-61, No Iterations 97
DILUPBiCGStab:  Solving for ILambda_111_0, Initial residual = 1, Final residual = 2.7370089804e-61, No Iterations 60
DILUPBiCGStab:  Solving for ILambda_112_0, Initial residual = 1, Final residual = 1.86023188498e-73, No Iterations 3
DILUPBiCGStab:  Solving for ILambda_113_0, Initial residual = 1, Final residual = 1.9473704143e-61, No Iterations 2
DILUPBiCGStab:  Solving for ILambda_114_0, Initial residual = 1, Final residual = 1.63467494246e-61, No Iterations 2
DILUPBiCGStab:  Solving for ILambda_115_0, Initial residual = 1, Final residual = 1.88942737111e-74, No Iterations 3
DILUPBiCGStab:  Solving for ILambda_116_0, Initial residual = 1, Final residual = 1.65955058725e-61, No Iterations 2
DILUPBiCGStab:  Solving for ILambda_117_0, Initial residual = 1, Final residual = 2.83258601744e-75, No Iterations 3
DILUPBiCGStab:  Solving for ILambda_118_0, Initial residual = 1, Final residual = 8.4014516255e-74, No Iterations 3
DILUPBiCGStab:  Solving for ILambda_119_0, Initial residual = 1, Final residual = 2.01682859955e-75, No Iterations 3
DILUPBiCGStab:  Solving for ILambda_120_0, Initial residual = 1, Final residual = 5.68015782732e-61, No Iterations 60
DILUPBiCGStab:  Solving for ILambda_121_0, Initial residual = 1, Final residual = 9.49834393664e-61, No Iterations 97
DILUPBiCGStab:  Solving for ILambda_122_0, Initial residual = 1, Final residual = 8.1687653558e-61, No Iterations 120
DILUPBiCGStab:  Solving for ILambda_123_0, Initial residual = 1, Final residual = 3.30193661772e-61, No Iterations 123
DILUPBiCGStab:  Solving for ILambda_124_0, Initial residual = 1, Final residual = 3.13050676445e-61, No Iterations 124
DILUPBiCGStab:  Solving for ILambda_125_0, Initial residual = 1, Final residual = 5.86894884555e-61, No Iterations 119
DILUPBiCGStab:  Solving for ILambda_126_0, Initial residual = 1, Final residual = 7.88062188138e-61, No Iterations 94
DILUPBiCGStab:  Solving for ILambda_127_0, Initial residual = 1, Final residual = 9.88399265758e-63, No Iterations 63
Radiation solver iter: 1
DILUPBiCGStab:  Solving for ILambda_0_0, Initial residual = 5.3234094212e-16, Final residual = 7.32503001878e-63, No Iterations 2
DILUPBiCGStab:  Solving for ILambda_1_0, Initial residual = 5.64349179027e-16, Final residual = 8.29459316215e-63, No Iterations 2
DILUPBiCGStab:  Solving for ILambda_2_0, Initial residual = 5.09650435979e-16, Final residual = 1.11578458183e-62, No Iterations 2
DILUPBiCGStab:  Solving for ILambda_3_0, Initial residual = 5.20698218836e-16, Final residual = 6.60601380994e-63, No Iterations 2
DILUPBiCGStab:  Solving for ILambda_4_0, Initial residual = 5.23977062067e-16, Final residual = 7.78126425815e-63, No Iterations 2
DILUPBiCGStab:  Solving for ILambda_5_0, Initial residual = 5.74763483321e-16, Final residual = 8.51874619968e-63, No Iterations 2
DILUPBiCGStab:  Solving for ILambda_6_0, Initial residual = 6.19923421826e-16, Final residual = 1.35030522762e-62, No Iterations 2
DILUPBiCGStab:  Solving for ILambda_7_0, Initial residual = 5.71392479984e-16, Final residual = 7.83964971732e-63, No Iterations 2
DILUPBiCGStab:  Solving for ILambda_8_0, Initial residual = 1.41000363006e-15, Final residual = 3.75880101755e-61, No Iterations 46
DILUPBiCGStab:  Solving for ILambda_9_0, Initial residual = 1.937335082e-15, Final residual = 8.60660178968e-62, No Iterations 72
DILUPBiCGStab:  Solving for ILambda_10_0, Initial residual = 2.22793900691e-15, Final residual = 9.58978486972e-62, No Iterations 91
DILUPBiCGStab:  Solving for ILambda_11_0, Initial residual = 4.11046160101e-14, Final residual = 1.42953876554e-61, No Iterations 104
DILUPBiCGStab:  Solving for ILambda_12_0, Initial residual = 2.64462534844e-15, Final residual = 8.27196005957e-61, No Iterations 102
DILUPBiCGStab:  Solving for ILambda_13_0, Initial residual = 2.50040753128e-15, Final residual = 9.50762273042e-61, No Iterations 90
DILUPBiCGStab:  Solving for ILambda_14_0, Initial residual = 2.37207014513e-15, Final residual = 6.94032442742e-61, No Iterations 72
DILUPBiCGStab:  Solving for ILambda_15_0, Initial residual = 1.78382676997e-15, Final residual = 2.81937901342e-61, No Iterations 49
DILUPBiCGStab:  Solving for ILambda_16_0, Initial residual = 1.54544337782e-15, Final residual = 8.4202319939e-61, No Iterations 27
DILUPBiCGStab:  Solving for ILambda_17_0, Initial residual = 1.63495289175e-15, Final residual = 6.23613580763e-61, No Iterations 29
DILUPBiCGStab:  Solving for ILambda_18_0, Initial residual = 2.52419031949e-15, Final residual = 3.41899725739e-61, No Iterations 31
DILUPBiCGStab:  Solving for ILambda_19_0, Initial residual = 3.09075321058e-15, Final residual = 4.95443947984e-62, No Iterations 31
DILUPBiCGStab:  Solving for ILambda_20_0, Initial residual = 3.05499589721e-15, Final residual = 7.6612935177e-61, No Iterations 30
DILUPBiCGStab:  Solving for ILambda_21_0, Initial residual = 2.50863977832e-15, Final residual = 5.97073001299e-61, No Iterations 31
DILUPBiCGStab:  Solving for ILambda_22_0, Initial residual = 1.61416741018e-15, Final residual = 6.14069779953e-61, No Iterations 29
DILUPBiCGStab:  Solving for ILambda_23_0, Initial residual = 1.47642297997e-15, Final residual = 7.88906330326e-62, No Iterations 30
DILUPBiCGStab:  Solving for ILambda_24_0, Initial residual = 1.7607458262e-15, Final residual = 8.06271407162e-61, No Iterations 50
DILUPBiCGStab:  Solving for ILambda_25_0, Initial residual = 2.37618701222e-15, Final residual = 5.97218898082e-61, No Iterations 73
DILUPBiCGStab:  Solving for ILambda_26_0, Initial residual = 2.52297022848e-15, Final residual = 1.69870414237e-61, No Iterations 89
DILUPBiCGStab:  Solving for ILambda_27_0, Initial residual = 2.62286281679e-15, Final residual = 5.57889083583e-61, No Iterations 100
DILUPBiCGStab:  Solving for ILambda_28_0, Initial residual = 4.14541002144e-14, Final residual = 6.16089072216e-61, No Iterations 103
DILUPBiCGStab:  Solving for ILambda_29_0, Initial residual = 2.20287948895e-15, Final residual = 3.77105591339e-61, No Iterations 92
DILUPBiCGStab:  Solving for ILambda_30_0, Initial residual = 1.85887466811e-15, Final residual = 4.60302828259e-61, No Iterations 72
DILUPBiCGStab:  Solving for ILambda_31_0, Initial residual = 1.40296908198e-15, Final residual = 2.89659336418e-61, No Iterations 47
DILUPBiCGStab:  Solving for ILambda_32_0, Initial residual = 1.6398850932e-15, Final residual = 5.24218056737e-62, No Iterations 2
DILUPBiCGStab:  Solving for ILambda_33_0, Initial residual = 2.05475206934e-15, Final residual = 4.34408478008e-62, No Iterations 2
DILUPBiCGStab:  Solving for ILambda_34_0, Initial residual = 2.24035835647e-15, Final residual = 4.40378413216e-62, No Iterations 2
DILUPBiCGStab:  Solving for ILambda_35_0, Initial residual = 2.22212824644e-15, Final residual = 8.91632409987e-62, No Iterations 2
DILUPBiCGStab:  Solving for ILambda_36_0, Initial residual = 2.27908378608e-15, Final residual = 5.82675026704e-62, No Iterations 2
DILUPBiCGStab:  Solving for ILambda_37_0, Initial residual = 2.43744008505e-15, Final residual = 4.83270146549e-62, No Iterations 2
DILUPBiCGStab:  Solving for ILambda_38_0, Initial residual = 2.2148861363e-15, Final residual = 4.22591458378e-62, No Iterations 2
DILUPBiCGStab:  Solving for ILambda_39_0, Initial residual = 1.81401219982e-15, Final residual = 5.95686780007e-62, No Iterations 2
DILUPBiCGStab:  Solving for ILambda_40_0, Initial residual = 5.17437068304e-15, Final residual = 7.15046643399e-61, No Iterations 52
DILUPBiCGStab:  Solving for ILambda_41_0, Initial residual = 7.70534260958e-15, Final residual = 8.46478676593e-61, No Iterations 83
DILUPBiCGStab:  Solving for ILambda_42_0, Initial residual = 2.33483263595e-14, Final residual = 1.10007814922e-61, No Iterations 106
DILUPBiCGStab:  Solving for ILambda_43_0, Initial residual = 1.59769852266e-14, Final residual = 9.76695646524e-61, No Iterations 115
DILUPBiCGStab:  Solving for ILambda_44_0, Initial residual = 2.27862867068e-14, Final residual = 1.14979053183e-61, No Iterations 115
DILUPBiCGStab:  Solving for ILambda_45_0, Initial residual = 2.43400911178e-14, Final residual = 8.18874913074e-61, No Iterations 103
DILUPBiCGStab:  Solving for ILambda_46_0, Initial residual = 3.14378388547e-14, Final residual = 8.17463682017e-61, No Iterations 84
DILUPBiCGStab:  Solving for ILambda_47_0, Initial residual = 6.41184325294e-13, Final residual = 3.53687531315e-61, No Iterations 57
DILUPBiCGStab:  Solving for ILambda_48_0, Initial residual = 8.08765314702e-15, Final residual = 1.87704123766e-61, No Iterations 37
DILUPBiCGStab:  Solving for ILambda_49_0, Initial residual = 4.14874262261e-14, Final residual = 3.3173226074e-61, No Iterations 39
DILUPBiCGStab:  Solving for ILambda_50_0, Initial residual = 1.17314984921e-14, Final residual = 4.35379592461e-61, No Iterations 39
DILUPBiCGStab:  Solving for ILambda_51_0, Initial residual = 1.51281472367e-14, Final residual = 4.71846176176e-61, No Iterations 39
DILUPBiCGStab:  Solving for ILambda_52_0, Initial residual = 1.99599068452e-14, Final residual = 2.56840569276e-61, No Iterations 39
DILUPBiCGStab:  Solving for ILambda_53_0, Initial residual = 3.14653864406e-14, Final residual = 7.56565538136e-61, No Iterations 36
DILUPBiCGStab:  Solving for ILambda_54_0, Initial residual = 3.92090069785e-14, Final residual = 2.36223650948e-61, No Iterations 39
DILUPBiCGStab:  Solving for ILambda_55_0, Initial residual = 7.88957478063e-15, Final residual = 4.01283543071e-61, No Iterations 37
DILUPBiCGStab:  Solving for ILambda_56_0, Initial residual = 6.36482786682e-13, Final residual = 2.42883317989e-61, No Iterations 58
DILUPBiCGStab:  Solving for ILambda_57_0, Initial residual = 4.04813613127e-14, Final residual = 6.82819634643e-61, No Iterations 83
DILUPBiCGStab:  Solving for ILambda_58_0, Initial residual = 2.54413844004e-14, Final residual = 9.43903017562e-61, No Iterations 102
DILUPBiCGStab:  Solving for ILambda_59_0, Initial residual = 2.28215041888e-14, Final residual = 8.95802532527e-61, No Iterations 116
DILUPBiCGStab:  Solving for ILambda_60_0, Initial residual = 1.59706979445e-14, Final residual = 5.68868105952e-61, No Iterations 115
DILUPBiCGStab:  Solving for ILambda_61_0, Initial residual = 2.35823487814e-14, Final residual = 9.59778224245e-61, No Iterations 102
DILUPBiCGStab:  Solving for ILambda_62_0, Initial residual = 7.71211002508e-15, Final residual = 6.7715592436e-61, No Iterations 84
DILUPBiCGStab:  Solving for ILambda_63_0, Initial residual = 5.20901064543e-15, Final residual = 9.58864750797e-61, No Iterations 52
DILUPBiCGStab:  Solving for ILambda_64_0, Initial residual = 1.940645354e-13, Final residual = 3.18456343799e-61, No Iterations 35
DILUPBiCGStab:  Solving for ILambda_65_0, Initial residual = 1.41539883301e-14, Final residual = 3.6286638805e-61, No Iterations 40
DILUPBiCGStab:  Solving for ILambda_66_0, Initial residual = 1.63547548075e-14, Final residual = 6.73207113046e-61, No Iterations 36
DILUPBiCGStab:  Solving for ILambda_67_0, Initial residual = 7.13651361666e-15, Final residual = 4.42848411968e-61, No Iterations 38
DILUPBiCGStab:  Solving for ILambda_68_0, Initial residual = 7.26105799202e-15, Final residual = 8.21561141848e-61, No Iterations 38
DILUPBiCGStab:  Solving for ILambda_69_0, Initial residual = 1.72908388864e-14, Final residual = 4.4925809458e-62, No Iterations 38
DILUPBiCGStab:  Solving for ILambda_70_0, Initial residual = 1.49993688502e-14, Final residual = 3.06666561914e-61, No Iterations 37
DILUPBiCGStab:  Solving for ILambda_71_0, Initial residual = 2.09527799042e-13, Final residual = 4.65593312184e-61, No Iterations 37
DILUPBiCGStab:  Solving for ILambda_72_0, Initial residual = 1.03987472945e-14, Final residual = 9.48260204062e-61, No Iterations 60
DILUPBiCGStab:  Solving for ILambda_73_0, Initial residual = 2.11142207836e-14, Final residual = 3.8960025063e-61, No Iterations 87
DILUPBiCGStab:  Solving for ILambda_74_0, Initial residual = 3.41035367025e-14, Final residual = 2.92504051429e-61, No Iterations 102
DILUPBiCGStab:  Solving for ILambda_75_0, Initial residual = 2.44350325968e-14, Final residual = 6.67699195922e-61, No Iterations 114
DILUPBiCGStab:  Solving for ILambda_76_0, Initial residual = 4.43892818568e-14, Final residual = 2.95182673087e-61, No Iterations 117
DILUPBiCGStab:  Solving for ILambda_77_0, Initial residual = 1.13615879714e-14, Final residual = 1.97281825783e-61, No Iterations 104
DILUPBiCGStab:  Solving for ILambda_78_0, Initial residual = 7.31227504613e-15, Final residual = 5.65288764504e-61, No Iterations 85
DILUPBiCGStab:  Solving for ILambda_79_0, Initial residual = 5.11917404598e-15, Final residual = 2.01601692615e-61, No Iterations 52
DILUPBiCGStab:  Solving for ILambda_80_0, Initial residual = 1.60997797072e-15, Final residual = 7.73097549028e-62, No Iterations 2
DILUPBiCGStab:  Solving for ILambda_81_0, Initial residual = 2.10184201634e-15, Final residual = 3.82058602528e-62, No Iterations 2
DILUPBiCGStab:  Solving for ILambda_82_0, Initial residual = 2.2572304965e-15, Final residual = 5.01699401549e-62, No Iterations 2
DILUPBiCGStab:  Solving for ILambda_83_0, Initial residual = 2.30406958446e-15, Final residual = 1.34361977224e-61, No Iterations 2
DILUPBiCGStab:  Solving for ILambda_84_0, Initial residual = 2.11814683423e-15, Final residual = 8.61821800642e-62, No Iterations 2
DILUPBiCGStab:  Solving for ILambda_85_0, Initial residual = 2.00096201048e-15, Final residual = 4.10731159998e-62, No Iterations 2
DILUPBiCGStab:  Solving for ILambda_86_0, Initial residual = 1.89960815975e-15, Final residual = 4.16952303432e-62, No Iterations 2
DILUPBiCGStab:  Solving for ILambda_87_0, Initial residual = 1.41793551759e-15, Final residual = 3.48233159087e-62, No Iterations 2
DILUPBiCGStab:  Solving for ILambda_88_0, Initial residual = 5.08952237142e-15, Final residual = 4.16520343128e-61, No Iterations 53
DILUPBiCGStab:  Solving for ILambda_89_0, Initial residual = 7.27562022336e-15, Final residual = 1.10780206781e-61, No Iterations 84
DILUPBiCGStab:  Solving for ILambda_90_0, Initial residual = 1.12776508084e-14, Final residual = 8.1754721787e-62, No Iterations 106
DILUPBiCGStab:  Solving for ILambda_91_0, Initial residual = 4.44148531629e-14, Final residual = 7.20866926917e-61, No Iterations 113
DILUPBiCGStab:  Solving for ILambda_92_0, Initial residual = 2.4338909565e-14, Final residual = 4.12451083563e-61, No Iterations 113
DILUPBiCGStab:  Solving for ILambda_93_0, Initial residual = 3.30757920274e-14, Final residual = 8.24447478891e-61, No Iterations 106
DILUPBiCGStab:  Solving for ILambda_94_0, Initial residual = 2.3112780088e-14, Final residual = 8.63787436652e-61, No Iterations 86
DILUPBiCGStab:  Solving for ILambda_95_0, Initial residual = 1.58549909116e-14, Final residual = 3.22068871724e-61, No Iterations 61
DILUPBiCGStab:  Solving for ILambda_96_0, Initial residual = 1.78895863039e-15, Final residual = 2.94580877385e-61, No Iterations 29
DILUPBiCGStab:  Solving for ILambda_97_0, Initial residual = 1.82239702726e-15, Final residual = 8.36245419652e-61, No Iterations 31
DILUPBiCGStab:  Solving for ILambda_98_0, Initial residual = 3.48880039393e-15, Final residual = 3.71980796669e-61, No Iterations 31
DILUPBiCGStab:  Solving for ILambda_99_0, Initial residual = 2.06703957341e-15, Final residual = 3.8335821652e-61, No Iterations 30
DILUPBiCGStab:  Solving for ILambda_100_0, Initial residual = 2.08010676305e-15, Final residual = 1.86380697474e-61, No Iterations 30
DILUPBiCGStab:  Solving for ILambda_101_0, Initial residual = 3.54542353684e-15, Final residual = 2.65552481998e-61, No Iterations 29
DILUPBiCGStab:  Solving for ILambda_102_0, Initial residual = 1.82355057944e-15, Final residual = 6.43156742985e-62, No Iterations 31
DILUPBiCGStab:  Solving for ILambda_103_0, Initial residual = 1.79711889992e-15, Final residual = 2.5928538434e-61, No Iterations 29
DILUPBiCGStab:  Solving for ILambda_104_0, Initial residual = 2.17508627025e-15, Final residual = 6.19476160381e-61, No Iterations 50
DILUPBiCGStab:  Solving for ILambda_105_0, Initial residual = 2.59987424555e-15, Final residual = 7.29317707937e-61, No Iterations 74
DILUPBiCGStab:  Solving for ILambda_106_0, Initial residual = 2.75450989364e-15, Final residual = 6.71671871139e-61, No Iterations 87
DILUPBiCGStab:  Solving for ILambda_107_0, Initial residual = 2.76038239161e-15, Final residual = 4.53289056355e-61, No Iterations 103
DILUPBiCGStab:  Solving for ILambda_108_0, Initial residual = 2.77759818812e-15, Final residual = 6.35391765053e-61, No Iterations 102
DILUPBiCGStab:  Solving for ILambda_109_0, Initial residual = 2.42212446926e-15, Final residual = 9.93910020036e-61, No Iterations 89
DILUPBiCGStab:  Solving for ILambda_110_0, Initial residual = 2.03747198592e-15, Final residual = 2.45219126653e-61, No Iterations 73
DILUPBiCGStab:  Solving for ILambda_111_0, Initial residual = 1.51167653574e-15, Final residual = 5.81833449138e-61, No Iterations 48
DILUPBiCGStab:  Solving for ILambda_112_0, Initial residual = 5.97051102357e-16, Final residual = 7.55232450675e-63, No Iterations 2
DILUPBiCGStab:  Solving for ILambda_113_0, Initial residual = 6.60212131545e-16, Final residual = 7.67772646977e-63, No Iterations 2
DILUPBiCGStab:  Solving for ILambda_114_0, Initial residual = 6.50653654283e-16, Final residual = 7.51017479789e-63, No Iterations 2
DILUPBiCGStab:  Solving for ILambda_115_0, Initial residual = 6.16271264303e-16, Final residual = 8.54225856064e-63, No Iterations 2
DILUPBiCGStab:  Solving for ILambda_116_0, Initial residual = 5.96122617982e-16, Final residual = 7.49119347254e-63, No Iterations 2
DILUPBiCGStab:  Solving for ILambda_117_0, Initial residual = 5.88959241203e-16, Final residual = 1.00706306027e-62, No Iterations 2
DILUPBiCGStab:  Solving for ILambda_118_0, Initial residual = 5.95721855368e-16, Final residual = 1.19686019266e-62, No Iterations 2
DILUPBiCGStab:  Solving for ILambda_119_0, Initial residual = 5.60884103543e-16, Final residual = 6.40478810136e-63, No Iterations 2
DILUPBiCGStab:  Solving for ILambda_120_0, Initial residual = 1.6097405384e-15, Final residual = 4.55607774599e-61, No Iterations 47
DILUPBiCGStab:  Solving for ILambda_121_0, Initial residual = 1.97860288128e-15, Final residual = 9.19920520433e-63, No Iterations 76
DILUPBiCGStab:  Solving for ILambda_122_0, Initial residual = 2.42510036111e-15, Final residual = 9.57859643667e-61, No Iterations 88
DILUPBiCGStab:  Solving for ILambda_123_0, Initial residual = 2.73888546292e-15, Final residual = 5.85908432642e-61, No Iterations 102
DILUPBiCGStab:  Solving for ILambda_124_0, Initial residual = 2.81365186697e-15, Final residual = 2.50201534804e-61, No Iterations 101
DILUPBiCGStab:  Solving for ILambda_125_0, Initial residual = 2.79969919251e-15, Final residual = 3.54568268475e-61, No Iterations 91
DILUPBiCGStab:  Solving for ILambda_126_0, Initial residual = 2.56353852023e-15, Final residual = 3.24207718689e-61, No Iterations 75
DILUPBiCGStab:  Solving for ILambda_127_0, Initial residual = 2.20565104792e-15, Final residual = 4.45770551236e-61, No Iterations 50
min/max(T) = 1000, 1000
PIMPLE: iteration 2
Radiation solver iter: 0
DILUPBiCGStab:  Solving for ILambda_0_0, Initial residual = 4.70710985877e-16, Final residual = 5.96940904547e-63, No Iterations 2
DILUPBiCGStab:  Solving for ILambda_1_0, Initial residual = 4.71333204676e-16, Final residual = 7.19053620885e-63, No Iterations 2
DILUPBiCGStab:  Solving for ILambda_2_0, Initial residual = 4.5509288612e-16, Final residual = 6.57302132184e-63, No Iterations 2
DILUPBiCGStab:  Solving for ILambda_3_0, Initial residual = 4.66102768187e-16, Final residual = 7.14323464316e-63, No Iterations 2
DILUPBiCGStab:  Solving for ILambda_4_0, Initial residual = 4.70746379776e-16, Final residual = 4.54055843738e-63, No Iterations 2
DILUPBiCGStab:  Solving for ILambda_5_0, Initial residual = 5.08050487271e-16, Final residual = 6.19372783897e-63, No Iterations 2
DILUPBiCGStab:  Solving for ILambda_6_0, Initial residual = 5.34283442587e-16, Final residual = 1.02486017302e-62, No Iterations 2
DILUPBiCGStab:  Solving for ILambda_7_0, Initial residual = 5.07040082802e-16, Final residual = 7.03704825542e-63, No Iterations 2
DILUPBiCGStab:  Solving for ILambda_8_0, Initial residual = 5.28178143692e-16, Final residual = 7.22185292792e-61, No Iterations 46
DILUPBiCGStab:  Solving for ILambda_9_0, Initial residual = 5.82673658625e-16, Final residual = 4.12320304091e-61, No Iterations 72
DILUPBiCGStab:  Solving for ILambda_10_0, Initial residual = 7.437130106e-16, Final residual = 1.40255256921e-61, No Iterations 91
DILUPBiCGStab:  Solving for ILambda_11_0, Initial residual = 9.54989349842e-16, Final residual = 6.75870360655e-61, No Iterations 102
DILUPBiCGStab:  Solving for ILambda_12_0, Initial residual = 6.61523150472e-16, Final residual = 4.91515938832e-61, No Iterations 98
DILUPBiCGStab:  Solving for ILambda_13_0, Initial residual = 8.55657030381e-16, Final residual = 3.47075983952e-61, No Iterations 90
DILUPBiCGStab:  Solving for ILambda_14_0, Initial residual = 6.87461949769e-16, Final residual = 6.00708217981e-61, No Iterations 72
DILUPBiCGStab:  Solving for ILambda_15_0, Initial residual = 6.26879448991e-16, Final residual = 3.01259729284e-61, No Iterations 48
DILUPBiCGStab:  Solving for ILambda_16_0, Initial residual = 6.09725602425e-16, Final residual = 2.4000036282e-61, No Iterations 27
DILUPBiCGStab:  Solving for ILambda_17_0, Initial residual = 6.27307489976e-16, Final residual = 3.53992383102e-61, No Iterations 29
DILUPBiCGStab:  Solving for ILambda_18_0, Initial residual = 7.48949055726e-16, Final residual = 3.97043051514e-61, No Iterations 30
DILUPBiCGStab:  Solving for ILambda_19_0, Initial residual = 6.6239389138e-16, Final residual = 9.97308608716e-62, No Iterations 30
DILUPBiCGStab:  Solving for ILambda_20_0, Initial residual = 7.31158841299e-16, Final residual = 2.82651694895e-61, No Iterations 28
DILUPBiCGStab:  Solving for ILambda_21_0, Initial residual = 6.1347714329e-16, Final residual = 6.31534065235e-62, No Iterations 31
DILUPBiCGStab:  Solving for ILambda_22_0, Initial residual = 5.99800991634e-16, Final residual = 8.26917107491e-62, No Iterations 28
DILUPBiCGStab:  Solving for ILambda_23_0, Initial residual = 5.51559701906e-16, Final residual = 3.4035290514e-61, No Iterations 27
DILUPBiCGStab:  Solving for ILambda_24_0, Initial residual = 6.21145424876e-16, Final residual = 1.03211025262e-61, No Iterations 49
DILUPBiCGStab:  Solving for ILambda_25_0, Initial residual = 6.88953294868e-16, Final residual = 5.35327783715e-62, No Iterations 73
DILUPBiCGStab:  Solving for ILambda_26_0, Initial residual = 7.5038873338e-16, Final residual = 9.88144135075e-61, No Iterations 88
DILUPBiCGStab:  Solving for ILambda_27_0, Initial residual = 7.01194017837e-16, Final residual = 7.19022171046e-61, No Iterations 98
DILUPBiCGStab:  Solving for ILambda_28_0, Initial residual = 1.08263398433e-15, Final residual = 7.10879967167e-61, No Iterations 100
DILUPBiCGStab:  Solving for ILambda_29_0, Initial residual = 6.5924421676e-16, Final residual = 8.33270419394e-61, No Iterations 90
DILUPBiCGStab:  Solving for ILambda_30_0, Initial residual = 5.86533888079e-16, Final residual = 5.8540390314e-61, No Iterations 72
DILUPBiCGStab:  Solving for ILambda_31_0, Initial residual = 5.23484819184e-16, Final residual = 5.4251427426e-62, No Iterations 47
DILUPBiCGStab:  Solving for ILambda_32_0, Initial residual = 1.53745591379e-15, Final residual = 4.25104476899e-62, No Iterations 2
DILUPBiCGStab:  Solving for ILambda_33_0, Initial residual = 1.97785391581e-15, Final residual = 4.12175950757e-62, No Iterations 2
DILUPBiCGStab:  Solving for ILambda_34_0, Initial residual = 2.122332917e-15, Final residual = 4.74032774231e-62, No Iterations 2
DILUPBiCGStab:  Solving for ILambda_35_0, Initial residual = 2.01253364853e-15, Final residual = 7.21212223319e-62, No Iterations 2
DILUPBiCGStab:  Solving for ILambda_36_0, Initial residual = 2.15627927793e-15, Final residual = 5.88900590379e-62, No Iterations 2
DILUPBiCGStab:  Solving for ILambda_37_0, Initial residual = 2.31128841027e-15, Final residual = 5.44393336223e-62, No Iterations 2
DILUPBiCGStab:  Solving for ILambda_38_0, Initial residual = 2.16778650164e-15, Final residual = 4.33562435564e-62, No Iterations 2
DILUPBiCGStab:  Solving for ILambda_39_0, Initial residual = 1.66949699743e-15, Final residual = 4.93099723204e-62, No Iterations 2
DILUPBiCGStab:  Solving for ILambda_40_0, Initial residual = 1.64617390501e-15, Final residual = 4.77398560025e-61, No Iterations 52
DILUPBiCGStab:  Solving for ILambda_41_0, Initial residual = 2.26935653983e-15, Final residual = 6.86724882918e-62, No Iterations 84
DILUPBiCGStab:  Solving for ILambda_42_0, Initial residual = 3.27294753433e-15, Final residual = 1.21371577183e-61, No Iterations 103
DILUPBiCGStab:  Solving for ILambda_43_0, Initial residual = 3.04162252698e-15, Final residual = 2.98667154694e-61, No Iterations 114
DILUPBiCGStab:  Solving for ILambda_44_0, Initial residual = 3.38395486923e-15, Final residual = 7.53105279367e-61, No Iterations 113
DILUPBiCGStab:  Solving for ILambda_45_0, Initial residual = 3.36436661923e-15, Final residual = 8.37097881211e-61, No Iterations 102
DILUPBiCGStab:  Solving for ILambda_46_0, Initial residual = 3.06730651569e-15, Final residual = 6.64282675049e-61, No Iterations 82
DILUPBiCGStab:  Solving for ILambda_47_0, Initial residual = 3.38609974802e-15, Final residual = 6.01079694822e-62, No Iterations 58
DILUPBiCGStab:  Solving for ILambda_48_0, Initial residual = 2.05523645163e-15, Final residual = 5.18838894865e-61, No Iterations 35
DILUPBiCGStab:  Solving for ILambda_49_0, Initial residual = 2.93245414521e-15, Final residual = 3.25472481602e-61, No Iterations 36
DILUPBiCGStab:  Solving for ILambda_50_0, Initial residual = 2.71406945332e-15, Final residual = 2.94319867447e-61, No Iterations 37
DILUPBiCGStab:  Solving for ILambda_51_0, Initial residual = 2.60920663528e-15, Final residual = 5.05919116298e-61, No Iterations 36
DILUPBiCGStab:  Solving for ILambda_52_0, Initial residual = 2.85473186195e-15, Final residual = 7.81867065646e-61, No Iterations 38
DILUPBiCGStab:  Solving for ILambda_53_0, Initial residual = 2.77123455203e-15, Final residual = 2.19365177724e-61, No Iterations 37
DILUPBiCGStab:  Solving for ILambda_54_0, Initial residual = 3.00605832918e-15, Final residual = 4.37230747432e-61, No Iterations 36
DILUPBiCGStab:  Solving for ILambda_55_0, Initial residual = 2.23992054286e-15, Final residual = 7.23175249115e-62, No Iterations 34
DILUPBiCGStab:  Solving for ILambda_56_0, Initial residual = 3.29488614319e-15, Final residual = 9.24436345331e-61, No Iterations 57
DILUPBiCGStab:  Solving for ILambda_57_0, Initial residual = 3.34956831526e-15, Final residual = 6.66535189742e-61, No Iterations 83
DILUPBiCGStab:  Solving for ILambda_58_0, Initial residual = 3.48647480659e-15, Final residual = 3.09722961345e-61, No Iterations 101
DILUPBiCGStab:  Solving for ILambda_59_0, Initial residual = 3.66220853279e-15, Final residual = 9.31093811105e-61, No Iterations 113
DILUPBiCGStab:  Solving for ILambda_60_0, Initial residual = 3.026647296e-15, Final residual = 9.26737390684e-61, No Iterations 114
DILUPBiCGStab:  Solving for ILambda_61_0, Initial residual = 3.16952698582e-15, Final residual = 4.41959666485e-61, No Iterations 104
DILUPBiCGStab:  Solving for ILambda_62_0, Initial residual = 2.28841553844e-15, Final residual = 7.13038725082e-61, No Iterations 83
DILUPBiCGStab:  Solving for ILambda_63_0, Initial residual = 1.68019742719e-15, Final residual = 4.54247484806e-61, No Iterations 52
DILUPBiCGStab:  Solving for ILambda_64_0, Initial residual = 2.69202309065e-15, Final residual = 8.66225510322e-61, No Iterations 37
DILUPBiCGStab:  Solving for ILambda_65_0, Initial residual = 2.28542630483e-15, Final residual = 4.90834376023e-61, No Iterations 37
DILUPBiCGStab:  Solving for ILambda_66_0, Initial residual = 2.4349082103e-15, Final residual = 8.58432420478e-61, No Iterations 37
DILUPBiCGStab:  Solving for ILambda_67_0, Initial residual = 2.29573548967e-15, Final residual = 3.37252441257e-61, No Iterations 38
DILUPBiCGStab:  Solving for ILambda_68_0, Initial residual = 2.43654780188e-15, Final residual = 5.0998854438e-61, No Iterations 38
DILUPBiCGStab:  Solving for ILambda_69_0, Initial residual = 2.71779392826e-15, Final residual = 1.22209651404e-61, No Iterations 37
DILUPBiCGStab:  Solving for ILambda_70_0, Initial residual = 2.67251557103e-15, Final residual = 2.45380691021e-61, No Iterations 36
DILUPBiCGStab:  Solving for ILambda_71_0, Initial residual = 2.78921907174e-15, Final residual = 1.49091966511e-61, No Iterations 37
DILUPBiCGStab:  Solving for ILambda_72_0, Initial residual = 1.9184686466e-15, Final residual = 6.95368667876e-61, No Iterations 57
DILUPBiCGStab:  Solving for ILambda_73_0, Initial residual = 2.91429898696e-15, Final residual = 4.17448304574e-61, No Iterations 84
DILUPBiCGStab:  Solving for ILambda_74_0, Initial residual = 3.1648621294e-15, Final residual = 5.59077153101e-61, No Iterations 101
DILUPBiCGStab:  Solving for ILambda_75_0, Initial residual = 3.65647412627e-15, Final residual = 6.27843315307e-61, No Iterations 117
DILUPBiCGStab:  Solving for ILambda_76_0, Initial residual = 3.410840296e-15, Final residual = 9.05595224853e-61, No Iterations 117
DILUPBiCGStab:  Solving for ILambda_77_0, Initial residual = 3.02357971143e-15, Final residual = 6.87262322527e-61, No Iterations 103
DILUPBiCGStab:  Solving for ILambda_78_0, Initial residual = 2.24146410777e-15, Final residual = 7.51406803795e-61, No Iterations 83
DILUPBiCGStab:  Solving for ILambda_79_0, Initial residual = 1.7373300638e-15, Final residual = 4.33452649699e-62, No Iterations 53
DILUPBiCGStab:  Solving for ILambda_80_0, Initial residual = 1.46379887266e-15, Final residual = 5.87603223607e-62, No Iterations 2
DILUPBiCGStab:  Solving for ILambda_81_0, Initial residual = 2.00092665907e-15, Final residual = 4.23150772311e-62, No Iterations 2
DILUPBiCGStab:  Solving for ILambda_82_0, Initial residual = 2.15814321499e-15, Final residual = 7.76518333538e-62, No Iterations 2
DILUPBiCGStab:  Solving for ILambda_83_0, Initial residual = 2.10493934368e-15, Final residual = 1.44273453095e-61, No Iterations 2
DILUPBiCGStab:  Solving for ILambda_84_0, Initial residual = 1.99579628576e-15, Final residual = 6.88205659026e-62, No Iterations 2
DILUPBiCGStab:  Solving for ILambda_85_0, Initial residual = 1.91592215541e-15, Final residual = 5.8919299874e-62, No Iterations 2
DILUPBiCGStab:  Solving for ILambda_86_0, Initial residual = 1.8111205225e-15, Final residual = 4.59795135341e-62, No Iterations 2
DILUPBiCGStab:  Solving for ILambda_87_0, Initial residual = 1.31883412951e-15, Final residual = 2.89807468064e-62, No Iterations 2
DILUPBiCGStab:  Solving for ILambda_88_0, Initial residual = 1.58948214127e-15, Final residual = 9.34261849244e-63, No Iterations 52
DILUPBiCGStab:  Solving for ILambda_89_0, Initial residual = 2.28439414565e-15, Final residual = 6.8778919982e-61, No Iterations 83
DILUPBiCGStab:  Solving for ILambda_90_0, Initial residual = 2.77425284858e-15, Final residual = 6.64260067078e-61, No Iterations 105
DILUPBiCGStab:  Solving for ILambda_91_0, Initial residual = 3.62586065543e-15, Final residual = 3.05121444554e-61, No Iterations 116
DILUPBiCGStab:  Solving for ILambda_92_0, Initial residual = 3.38155148326e-15, Final residual = 5.98952003685e-61, No Iterations 110
DILUPBiCGStab:  Solving for ILambda_93_0, Initial residual = 3.8122577604e-15, Final residual = 2.50306911793e-61, No Iterations 103
DILUPBiCGStab:  Solving for ILambda_94_0, Initial residual = 3.04704556916e-15, Final residual = 7.8930333763e-61, No Iterations 83
DILUPBiCGStab:  Solving for ILambda_95_0, Initial residual = 2.16174871884e-15, Final residual = 6.68503674108e-61, No Iterations 57
DILUPBiCGStab:  Solving for ILambda_96_0, Initial residual = 6.91253260961e-16, Final residual = 8.46291632591e-61, No Iterations 28
DILUPBiCGStab:  Solving for ILambda_97_0, Initial residual = 6.27813754444e-16, Final residual = 3.09084553657e-61, No Iterations 29
DILUPBiCGStab:  Solving for ILambda_98_0, Initial residual = 8.00005158935e-16, Final residual = 1.16485274923e-61, No Iterations 30
DILUPBiCGStab:  Solving for ILambda_99_0, Initial residual = 6.68387272462e-16, Final residual = 3.64580236094e-61, No Iterations 31
DILUPBiCGStab:  Solving for ILambda_100_0, Initial residual = 7.46889028809e-16, Final residual = 1.11401439411e-61, No Iterations 30
DILUPBiCGStab:  Solving for ILambda_101_0, Initial residual = 8.71709204645e-16, Final residual = 6.48476735335e-62, No Iterations 30
DILUPBiCGStab:  Solving for ILambda_102_0, Initial residual = 7.97001521328e-16, Final residual = 5.21137606272e-61, No Iterations 27
DILUPBiCGStab:  Solving for ILambda_103_0, Initial residual = 6.79298875911e-16, Final residual = 1.18374528458e-61, No Iterations 29
DILUPBiCGStab:  Solving for ILambda_104_0, Initial residual = 6.59152693991e-16, Final residual = 8.03211852035e-61, No Iterations 50
DILUPBiCGStab:  Solving for ILambda_105_0, Initial residual = 8.06355240847e-16, Final residual = 4.02236057972e-62, No Iterations 73
DILUPBiCGStab:  Solving for ILambda_106_0, Initial residual = 7.28619105953e-16, Final residual = 7.37631940449e-61, No Iterations 88
DILUPBiCGStab:  Solving for ILambda_107_0, Initial residual = 7.45986633093e-16, Final residual = 7.92115607154e-63, No Iterations 100
DILUPBiCGStab:  Solving for ILambda_108_0, Initial residual = 7.21430915204e-16, Final residual = 4.3231872314e-61, No Iterations 99
DILUPBiCGStab:  Solving for ILambda_109_0, Initial residual = 8.03010836047e-16, Final residual = 1.25977288317e-61, No Iterations 90
DILUPBiCGStab:  Solving for ILambda_110_0, Initial residual = 6.85627373068e-16, Final residual = 4.9729980225e-61, No Iterations 72
DILUPBiCGStab:  Solving for ILambda_111_0, Initial residual = 5.97109823088e-16, Final residual = 8.23631424954e-63, No Iterations 48
DILUPBiCGStab:  Solving for ILambda_112_0, Initial residual = 5.38334578142e-16, Final residual = 6.73757014857e-63, No Iterations 2
DILUPBiCGStab:  Solving for ILambda_113_0, Initial residual = 5.74394672935e-16, Final residual = 7.10524342206e-63, No Iterations 2
DILUPBiCGStab:  Solving for ILambda_114_0, Initial residual = 5.74734675314e-16, Final residual = 6.68204007256e-63, No Iterations 2
DILUPBiCGStab:  Solving for ILambda_115_0, Initial residual = 5.52995725441e-16, Final residual = 7.98286789846e-63, No Iterations 2
DILUPBiCGStab:  Solving for ILambda_116_0, Initial residual = 5.38130670193e-16, Final residual = 6.62428243598e-63, No Iterations 2
DILUPBiCGStab:  Solving for ILambda_117_0, Initial residual = 5.21045316983e-16, Final residual = 7.40950802499e-63, No Iterations 2
DILUPBiCGStab:  Solving for ILambda_118_0, Initial residual = 5.31278487793e-16, Final residual = 6.84844265537e-63, No Iterations 2
DILUPBiCGStab:  Solving for ILambda_119_0, Initial residual = 5.08116856136e-16, Final residual = 5.99993388585e-63, No Iterations 2
DILUPBiCGStab:  Solving for ILambda_120_0, Initial residual = 6.0752705917e-16, Final residual = 6.25127665551e-61, No Iterations 46
DILUPBiCGStab:  Solving for ILambda_121_0, Initial residual = 7.064685586e-16, Final residual = 7.82340898189e-61, No Iterations 72
DILUPBiCGStab:  Solving for ILambda_122_0, Initial residual = 7.83705014918e-16, Final residual = 8.89079465952e-61, No Iterations 91
DILUPBiCGStab:  Solving for ILambda_123_0, Initial residual = 7.983905088e-16, Final residual = 6.57439632309e-61, No Iterations 101
DILUPBiCGStab:  Solving for ILambda_124_0, Initial residual = 7.06907179513e-16, Final residual = 2.3802095396e-61, No Iterations 100
DILUPBiCGStab:  Solving for ILambda_125_0, Initial residual = 7.87862077239e-16, Final residual = 2.24294749546e-61, No Iterations 89
DILUPBiCGStab:  Solving for ILambda_126_0, Initial residual = 7.26153770036e-16, Final residual = 7.88250528187e-61, No Iterations 71
DILUPBiCGStab:  Solving for ILambda_127_0, Initial residual = 6.58819532451e-16, Final residual = 8.69657272195e-61, No Iterations 48
min/max(T) = 1000, 1000
PIMPLE: iteration 3
Radiation solver iter: 0
DILUPBiCGStab:  Solving for ILambda_0_0, Initial residual = 4.61414924846e-16, Final residual = 6.53001292861e-63, No Iterations 2
DILUPBiCGStab:  Solving for ILambda_1_0, Initial residual = 4.5885419961e-16, Final residual = 6.44805949115e-63, No Iterations 2
DILUPBiCGStab:  Solving for ILambda_2_0, Initial residual = 4.49578278686e-16, Final residual = 7.87439852305e-63, No Iterations 2
DILUPBiCGStab:  Solving for ILambda_3_0, Initial residual = 4.60764025517e-16, Final residual = 5.54325056929e-63, No Iterations 2
DILUPBiCGStab:  Solving for ILambda_4_0, Initial residual = 4.60873648878e-16, Final residual = 5.20114816821e-63, No Iterations 2
DILUPBiCGStab:  Solving for ILambda_5_0, Initial residual = 4.98121712491e-16, Final residual = 6.36345763026e-63, No Iterations 2
DILUPBiCGStab:  Solving for ILambda_6_0, Initial residual = 5.15560494817e-16, Final residual = 8.80009885167e-63, No Iterations 2
DILUPBiCGStab:  Solving for ILambda_7_0, Initial residual = 4.95631732564e-16, Final residual = 7.06903964956e-63, No Iterations 2
DILUPBiCGStab:  Solving for ILambda_8_0, Initial residual = 4.60681850486e-16, Final residual = 8.54290984356e-61, No Iterations 45
DILUPBiCGStab:  Solving for ILambda_9_0, Initial residual = 4.9474225371e-16, Final residual = 5.08830882554e-61, No Iterations 72
DILUPBiCGStab:  Solving for ILambda_10_0, Initial residual = 5.20131109145e-16, Final residual = 5.79794056062e-61, No Iterations 90
DILUPBiCGStab:  Solving for ILambda_11_0, Initial residual = 5.52082579846e-16, Final residual = 4.5889919024e-61, No Iterations 102
DILUPBiCGStab:  Solving for ILambda_12_0, Initial residual = 5.7471517256e-16, Final residual = 8.88896587722e-61, No Iterations 99
DILUPBiCGStab:  Solving for ILambda_13_0, Initial residual = 5.80724699728e-16, Final residual = 8.93748091448e-61, No Iterations 88
DILUPBiCGStab:  Solving for ILambda_14_0, Initial residual = 5.40665689183e-16, Final residual = 6.77212660196e-61, No Iterations 71
DILUPBiCGStab:  Solving for ILambda_15_0, Initial residual = 5.79626978977e-16, Final residual = 4.79606242005e-61, No Iterations 48
DILUPBiCGStab:  Solving for ILambda_16_0, Initial residual = 5.0971434045e-16, Final residual = 7.26592034979e-61, No Iterations 27
DILUPBiCGStab:  Solving for ILambda_17_0, Initial residual = 5.23898881065e-16, Final residual = 9.68406618846e-62, No Iterations 27
DILUPBiCGStab:  Solving for ILambda_18_0, Initial residual = 5.48583682588e-16, Final residual = 5.01823483645e-61, No Iterations 30
DILUPBiCGStab:  Solving for ILambda_19_0, Initial residual = 4.98404566257e-16, Final residual = 2.55391954111e-61, No Iterations 29
DILUPBiCGStab:  Solving for ILambda_20_0, Initial residual = 4.79295004936e-16, Final residual = 4.28029593329e-61, No Iterations 29
DILUPBiCGStab:  Solving for ILambda_21_0, Initial residual = 4.86047888965e-16, Final residual = 9.66543270298e-61, No Iterations 29
DILUPBiCGStab:  Solving for ILambda_22_0, Initial residual = 4.63739747408e-16, Final residual = 2.81737865015e-61, No Iterations 30
DILUPBiCGStab:  Solving for ILambda_23_0, Initial residual = 5.0342021744e-16, Final residual = 1.05993070733e-61, No Iterations 28
DILUPBiCGStab:  Solving for ILambda_24_0, Initial residual = 5.03649449236e-16, Final residual = 4.91326418731e-61, No Iterations 49
DILUPBiCGStab:  Solving for ILambda_25_0, Initial residual = 5.6051550562e-16, Final residual = 1.53748165081e-62, No Iterations 73
DILUPBiCGStab:  Solving for ILambda_26_0, Initial residual = 7.33700998548e-16, Final residual = 4.34586391708e-61, No Iterations 87
DILUPBiCGStab:  Solving for ILambda_27_0, Initial residual = 6.78478442787e-16, Final residual = 7.45350031171e-61, No Iterations 98
DILUPBiCGStab:  Solving for ILambda_28_0, Initial residual = 6.51083947229e-16, Final residual = 2.53902603829e-61, No Iterations 98
DILUPBiCGStab:  Solving for ILambda_29_0, Initial residual = 4.64483656636e-16, Final residual = 1.0464824596e-61, No Iterations 89
DILUPBiCGStab:  Solving for ILambda_30_0, Initial residual = 4.79294112652e-16, Final residual = 7.44356476545e-61, No Iterations 74
DILUPBiCGStab:  Solving for ILambda_31_0, Initial residual = 4.601924969e-16, Final residual = 7.28160020968e-61, No Iterations 47
DILUPBiCGStab:  Solving for ILambda_32_0, Initial residual = 1.49486545339e-15, Final residual = 3.94171335436e-62, No Iterations 2
DILUPBiCGStab:  Solving for ILambda_33_0, Initial residual = 1.96076303894e-15, Final residual = 4.26315035361e-62, No Iterations 2
DILUPBiCGStab:  Solving for ILambda_34_0, Initial residual = 2.1233752737e-15, Final residual = 5.57857098263e-62, No Iterations 2
DILUPBiCGStab:  Solving for ILambda_35_0, Initial residual = 1.97427407572e-15, Final residual = 8.90791133802e-62, No Iterations 2
DILUPBiCGStab:  Solving for ILambda_36_0, Initial residual = 2.12818442506e-15, Final residual = 5.59161048455e-62, No Iterations 2
DILUPBiCGStab:  Solving for ILambda_37_0, Initial residual = 2.31922004286e-15, Final residual = 5.79719961993e-62, No Iterations 2
DILUPBiCGStab:  Solving for ILambda_38_0, Initial residual = 2.15323208841e-15, Final residual = 4.68160467859e-62, No Iterations 2
DILUPBiCGStab:  Solving for ILambda_39_0, Initial residual = 1.62981470034e-15, Final residual = 5.03846611163e-62, No Iterations 2
DILUPBiCGStab:  Solving for ILambda_40_0, Initial residual = 1.53359122292e-15, Final residual = 6.00295100769e-61, No Iterations 53
DILUPBiCGStab:  Solving for ILambda_41_0, Initial residual = 2.14906521097e-15, Final residual = 5.18914872993e-61, No Iterations 84
DILUPBiCGStab:  Solving for ILambda_42_0, Initial residual = 2.39381712555e-15, Final residual = 8.36128249618e-61, No Iterations 105
DILUPBiCGStab:  Solving for ILambda_43_0, Initial residual = 2.73827157213e-15, Final residual = 6.14118480141e-61, No Iterations 115
DILUPBiCGStab:  Solving for ILambda_44_0, Initial residual = 3.02425002854e-15, Final residual = 5.56617381435e-61, No Iterations 115
DILUPBiCGStab:  Solving for ILambda_45_0, Initial residual = 2.83850845428e-15, Final residual = 1.40128675933e-61, No Iterations 100
DILUPBiCGStab:  Solving for ILambda_46_0, Initial residual = 2.23524327945e-15, Final residual = 2.8828834771e-61, No Iterations 82
DILUPBiCGStab:  Solving for ILambda_47_0, Initial residual = 1.89124823124e-15, Final residual = 1.73859444099e-61, No Iterations 57
DILUPBiCGStab:  Solving for ILambda_48_0, Initial residual = 1.76745813259e-15, Final residual = 5.45730825744e-61, No Iterations 36
DILUPBiCGStab:  Solving for ILambda_49_0, Initial residual = 2.19916920556e-15, Final residual = 8.21917776185e-61, No Iterations 37
DILUPBiCGStab:  Solving for ILambda_50_0, Initial residual = 2.39529389669e-15, Final residual = 4.4667852521e-61, No Iterations 37
DILUPBiCGStab:  Solving for ILambda_51_0, Initial residual = 2.19868193397e-15, Final residual = 5.67231780749e-61, No Iterations 37
DILUPBiCGStab:  Solving for ILambda_52_0, Initial residual = 2.08631594922e-15, Final residual = 2.39629100672e-61, No Iterations 37
DILUPBiCGStab:  Solving for ILambda_53_0, Initial residual = 2.17769509383e-15, Final residual = 3.38791464272e-61, No Iterations 38
DILUPBiCGStab:  Solving for ILambda_54_0, Initial residual = 2.03065566483e-15, Final residual = 9.91211466954e-61, No Iterations 36
DILUPBiCGStab:  Solving for ILambda_55_0, Initial residual = 1.56106997551e-15, Final residual = 5.37439085727e-61, No Iterations 36
DILUPBiCGStab:  Solving for ILambda_56_0, Initial residual = 1.7930824658e-15, Final residual = 7.19877598546e-61, No Iterations 56
DILUPBiCGStab:  Solving for ILambda_57_0, Initial residual = 2.55956951724e-15, Final residual = 2.20637327568e-61, No Iterations 82
DILUPBiCGStab:  Solving for ILambda_58_0, Initial residual = 3.08226101171e-15, Final residual = 7.08003609864e-61, No Iterations 102
DILUPBiCGStab:  Solving for ILambda_59_0, Initial residual = 2.52335352783e-15, Final residual = 8.31952763189e-61, No Iterations 113
DILUPBiCGStab:  Solving for ILambda_60_0, Initial residual = 2.4586313855e-15, Final residual = 2.69940259483e-61, No Iterations 115
DILUPBiCGStab:  Solving for ILambda_61_0, Initial residual = 2.40163522573e-15, Final residual = 5.11359732968e-61, No Iterations 106
DILUPBiCGStab:  Solving for ILambda_62_0, Initial residual = 2.02274884621e-15, Final residual = 9.01941233004e-61, No Iterations 82
DILUPBiCGStab:  Solving for ILambda_63_0, Initial residual = 1.52583430787e-15, Final residual = 6.53104072174e-61, No Iterations 52
DILUPBiCGStab:  Solving for ILambda_64_0, Initial residual = 1.4634645639e-15, Final residual = 9.22389218427e-61, No Iterations 34
DILUPBiCGStab:  Solving for ILambda_65_0, Initial residual = 1.88515759128e-15, Final residual = 2.43905698289e-61, No Iterations 37
[...]
DILUPBiCGStab:  Solving for ILambda_108_0, Initial residual = 5.13562417849e-16, Final residual = 9.62114952316e-61, No Iterations 101
DILUPBiCGStab:  Solving for ILambda_109_0, Initial residual = 6.1960419689e-16, Final residual = 7.23286820743e-61, No Iterations 89
DILUPBiCGStab:  Solving for ILambda_110_0, Initial residual = 5.51677653237e-16, Final residual = 6.98133658553e-61, No Iterations 72
DILUPBiCGStab:  Solving for ILambda_111_0, Initial residual = 5.20933441669e-16, Final residual = 2.89448219637e-61, No Iterations 47
DILUPBiCGStab:  Solving for ILambda_112_0, Initial residual = 5.3518524344e-16, Final residual = 7.69694401088e-63, No Iterations 2
DILUPBiCGStab:  Solving for ILambda_113_0, Initial residual = 5.53154594336e-16, Final residual = 6.85143304577e-63, No Iterations 2
DILUPBiCGStab:  Solving for ILambda_114_0, Initial residual = 5.52912020782e-16, Final residual = 6.45066164649e-63, No Iterations 2
DILUPBiCGStab:  Solving for ILambda_115_0, Initial residual = 5.32873847616e-16, Final residual = 8.6283920345e-63, No Iterations 2
DILUPBiCGStab:  Solving for ILambda_116_0, Initial residual = 5.21843910422e-16, Final residual = 9.86298245045e-63, No Iterations 2
DILUPBiCGStab:  Solving for ILambda_117_0, Initial residual = 5.08928621375e-16, Final residual = 6.96425333582e-63, No Iterations 2
DILUPBiCGStab:  Solving for ILambda_118_0, Initial residual = 5.09257194031e-16, Final residual = 7.77211245715e-63, No Iterations 2
DILUPBiCGStab:  Solving for ILambda_119_0, Initial residual = 5.06718223508e-16, Final residual = 6.69190871448e-63, No Iterations 2
DILUPBiCGStab:  Solving for ILambda_120_0, Initial residual = 5.24744807996e-16, Final residual = 5.52017013011e-61, No Iterations 46
DILUPBiCGStab:  Solving for ILambda_121_0, Initial residual = 5.45762538127e-16, Final residual = 1.02057360786e-61, No Iterations 72
DILUPBiCGStab:  Solving for ILambda_122_0, Initial residual = 5.29895406386e-16, Final residual = 4.19249619729e-61, No Iterations 91
DILUPBiCGStab:  Solving for ILambda_123_0, Initial residual = 5.23314775498e-16, Final residual = 6.91557924057e-61, No Iterations 98
DILUPBiCGStab:  Solving for ILambda_124_0, Initial residual = 4.9881892556e-16, Final residual = 1.08285755723e-61, No Iterations 99
DILUPBiCGStab:  Solving for ILambda_125_0, Initial residual = 4.81213626199e-16, Final residual = 2.36483996005e-61, No Iterations 88
DILUPBiCGStab:  Solving for ILambda_126_0, Initial residual = 4.99921532623e-16, Final residual = 5.74505086095e-61, No Iterations 72
DILUPBiCGStab:  Solving for ILambda_127_0, Initial residual = 4.87237727325e-16, Final residual = 3.7983798362e-61, No Iterations 50
min/max(T) = 1000, 1000
PIMPLE: iteration 10
Radiation solver iter: 0
DILUPBiCGStab:  Solving for ILambda_0_0, Initial residual = 4.86412577845e-16, Final residual = 8.19280868314e-63, No Iterations 2
DILUPBiCGStab:  Solving for ILambda_1_0, Initial residual = 4.61232304224e-16, Final residual = 7.23797600901e-63, No Iterations 2
DILUPBiCGStab:  Solving for ILambda_2_0, Initial residual = 4.5369578312e-16, Final residual = 9.94762553398e-63, No Iterations 2
DILUPBiCGStab:  Solving for ILambda_3_0, Initial residual = 4.64037175132e-16, Final residual = 6.9638784171e-63, No Iterations 2
DILUPBiCGStab:  Solving for ILambda_4_0, Initial residual = 4.66375934307e-16, Final residual = 6.25371647459e-63, No Iterations 2
DILUPBiCGStab:  Solving for ILambda_5_0, Initial residual = 4.94515273866e-16, Final residual = 5.73020633734e-63, No Iterations 2
DILUPBiCGStab:  Solving for ILambda_6_0, Initial residual = 5.07600436634e-16, Final residual = 7.42556410654e-63, No Iterations 2
DILUPBiCGStab:  Solving for ILambda_7_0, Initial residual = 5.16828896592e-16, Final residual = 8.21681016516e-63, No Iterations 2
DILUPBiCGStab:  Solving for ILambda_8_0, Initial residual = 4.76624868786e-16, Final residual = 3.18053344587e-61, No Iterations 46
DILUPBiCGStab:  Solving for ILambda_9_0, Initial residual = 4.57854842457e-16, Final residual = 4.76183749547e-61, No Iterations 74
DILUPBiCGStab:  Solving for ILambda_10_0, Initial residual = 4.42668820204e-16, Final residual = 5.4618862906e-61, No Iterations 90
DILUPBiCGStab:  Solving for ILambda_11_0, Initial residual = 4.48524874666e-16, Final residual = 7.8568557857e-61, No Iterations 98
DILUPBiCGStab:  Solving for ILambda_12_0, Initial residual = 4.49966804273e-16, Final residual = 3.51830374279e-61, No Iterations 101
DILUPBiCGStab:  Solving for ILambda_13_0, Initial residual = 4.80194341394e-16, Final residual = 6.58547478804e-61, No Iterations 87
DILUPBiCGStab:  Solving for ILambda_14_0, Initial residual = 4.99479427563e-16, Final residual = 3.4431205951e-61, No Iterations 71
DILUPBiCGStab:  Solving for ILambda_15_0, Initial residual = 4.79771186722e-16, Final residual = 4.6361274894e-61, No Iterations 48
DILUPBiCGStab:  Solving for ILambda_16_0, Initial residual = 4.83973373079e-16, Final residual = 8.58035298921e-61, No Iterations 28
DILUPBiCGStab:  Solving for ILambda_17_0, Initial residual = 4.95493598631e-16, Final residual = 7.04936056234e-62, No Iterations 29
DILUPBiCGStab:  Solving for ILambda_18_0, Initial residual = 4.91279430186e-16, Final residual = 6.71813526698e-61, No Iterations 29
DILUPBiCGStab:  Solving for ILambda_19_0, Initial residual = 4.65288028671e-16, Final residual = 5.59371860252e-61, No Iterations 30
DILUPBiCGStab:  Solving for ILambda_20_0, Initial residual = 4.62820525781e-16, Final residual = 3.60191805484e-62, No Iterations 30
DILUPBiCGStab:  Solving for ILambda_21_0, Initial residual = 4.48578581615e-16, Final residual = 1.03596527663e-61, No Iterations 30
DILUPBiCGStab:  Solving for ILambda_22_0, Initial residual = 4.47146722061e-16, Final residual = 8.51595592841e-61, No Iterations 28
DILUPBiCGStab:  Solving for ILambda_23_0, Initial residual = 4.46563211356e-16, Final residual = 5.41098876988e-61, No Iterations 28
DILUPBiCGStab:  Solving for ILambda_24_0, Initial residual = 4.78365288359e-16, Final residual = 3.87856215025e-62, No Iterations 48
DILUPBiCGStab:  Solving for ILambda_25_0, Initial residual = 4.96242691599e-16, Final residual = 1.91920842584e-61, No Iterations 71
DILUPBiCGStab:  Solving for ILambda_26_0, Initial residual = 4.8818409986e-16, Final residual = 5.98966283023e-61, No Iterations 88
DILUPBiCGStab:  Solving for ILambda_27_0, Initial residual = 4.53140995435e-16, Final residual = 2.17321292475e-61, No Iterations 99
DILUPBiCGStab:  Solving for ILambda_28_0, Initial residual = 4.45083635897e-16, Final residual = 2.97122731164e-61, No Iterations 100
DILUPBiCGStab:  Solving for ILambda_29_0, Initial residual = 4.41377643963e-16, Final residual = 8.73406879456e-61, No Iterations 88
DILUPBiCGStab:  Solving for ILambda_30_0, Initial residual = 4.5592933786e-16, Final residual = 6.1178412806e-62, No Iterations 73
DILUPBiCGStab:  Solving for ILambda_31_0, Initial residual = 4.74371003982e-16, Final residual = 7.63701935695e-61, No Iterations 45
DILUPBiCGStab:  Solving for ILambda_32_0, Initial residual = 1.48751898861e-15, Final residual = 4.84845563183e-62, No Iterations 2
DILUPBiCGStab:  Solving for ILambda_33_0, Initial residual = 2.01924021882e-15, Final residual = 5.75372658348e-62, No Iterations 2
DILUPBiCGStab:  Solving for ILambda_34_0, Initial residual = 2.22583317614e-15, Final residual = 7.76923496432e-62, No Iterations 2
DILUPBiCGStab:  Solving for ILambda_35_0, Initial residual = 2.0361614769e-15, Final residual = 1.15381733059e-61, No Iterations 2
DILUPBiCGStab:  Solving for ILambda_36_0, Initial residual = 2.17470806968e-15, Final residual = 6.80337362886e-62, No Iterations 2
DILUPBiCGStab:  Solving for ILambda_37_0, Initial residual = 2.35861765912e-15, Final residual = 6.15974956028e-62, No Iterations 2
DILUPBiCGStab:  Solving for ILambda_38_0, Initial residual = 2.19009545051e-15, Final residual = 5.42964951138e-62, No Iterations 2
DILUPBiCGStab:  Solving for ILambda_39_0, Initial residual = 1.61320021771e-15, Final residual = 4.54785311592e-62, No Iterations 2
DILUPBiCGStab:  Solving for ILambda_40_0, Initial residual = 1.49830371789e-15, Final residual = 2.44956453292e-61, No Iterations 53
DILUPBiCGStab:  Solving for ILambda_41_0, Initial residual = 2.11986188746e-15, Final residual = 4.92247178825e-61, No Iterations 83
DILUPBiCGStab:  Solving for ILambda_42_0, Initial residual = 2.40655892926e-15, Final residual = 9.29121486695e-61, No Iterations 103
DILUPBiCGStab:  Solving for ILambda_43_0, Initial residual = 2.30810440399e-15, Final residual = 8.99423693639e-61, No Iterations 118
DILUPBiCGStab:  Solving for ILambda_44_0, Initial residual = 2.24861868919e-15, Final residual = 9.50537214074e-61, No Iterations 114
DILUPBiCGStab:  Solving for ILambda_45_0, Initial residual = 2.86666347253e-15, Final residual = 5.60441521923e-61, No Iterations 100
DILUPBiCGStab:  Solving for ILambda_46_0, Initial residual = 2.43344588565e-15, Final residual = 4.39043521318e-61, No Iterations 82
DILUPBiCGStab:  Solving for ILambda_47_0, Initial residual = 1.59433021317e-15, Final residual = 4.43159798695e-61, No Iterations 56
DILUPBiCGStab:  Solving for ILambda_48_0, Initial residual = 1.72358295438e-15, Final residual = 9.60721192589e-61, No Iterations 36
DILUPBiCGStab:  Solving for ILambda_49_0, Initial residual = 2.34328891405e-15, Final residual = 5.62844481581e-61, No Iterations 37
DILUPBiCGStab:  Solving for ILambda_50_0, Initial residual = 2.39865890898e-15, Final residual = 1.81854456474e-62, No Iterations 40
DILUPBiCGStab:  Solving for ILambda_51_0, Initial residual = 2.17308190485e-15, Final residual = 2.25660958822e-61, No Iterations 37
DILUPBiCGStab:  Solving for ILambda_52_0, Initial residual = 2.06676933911e-15, Final residual = 1.29632477621e-61, No Iterations 38
DILUPBiCGStab:  Solving for ILambda_53_0, Initial residual = 2.10622015244e-15, Final residual = 1.41219675544e-61, No Iterations 36
DILUPBiCGStab:  Solving for ILambda_54_0, Initial residual = 2.02592316484e-15, Final residual = 7.40439367309e-61, No Iterations 35
DILUPBiCGStab:  Solving for ILambda_55_0, Initial residual = 1.49155482789e-15, Final residual = 2.46684838201e-61, No Iterations 35
DILUPBiCGStab:  Solving for ILambda_56_0, Initial residual = 1.60874271089e-15, Final residual = 7.50698359406e-61, No Iterations 57
DILUPBiCGStab:  Solving for ILambda_57_0, Initial residual = 2.59760474457e-15, Final residual = 7.93167019147e-61, No Iterations 81
DILUPBiCGStab:  Solving for ILambda_58_0, Initial residual = 2.61236463788e-15, Final residual = 5.80939935828e-61, No Iterations 101
DILUPBiCGStab:  Solving for ILambda_59_0, Initial residual = 2.78837539676e-15, Final residual = 1.06062494671e-61, No Iterations 116
DILUPBiCGStab:  Solving for ILambda_60_0, Initial residual = 2.08697300956e-15, Final residual = 6.02269369777e-61, No Iterations 117
DILUPBiCGStab:  Solving for ILambda_61_0, Initial residual = 2.42041124311e-15, Final residual = 5.59762143547e-61, No Iterations 105
DILUPBiCGStab:  Solving for ILambda_62_0, Initial residual = 2.09901203404e-15, Final residual = 6.07530953147e-61, No Iterations 81
DILUPBiCGStab:  Solving for ILambda_63_0, Initial residual = 1.48326135322e-15, Final residual = 4.77923565888e-61, No Iterations 54
DILUPBiCGStab:  Solving for ILambda_64_0, Initial residual = 1.26050192441e-15, Final residual = 2.27343721812e-61, No Iterations 36
DILUPBiCGStab:  Solving for ILambda_65_0, Initial residual = 2.06891455781e-15, Final residual = 1.7653745339e-61, No Iterations 35
DILUPBiCGStab:  Solving for ILambda_66_0, Initial residual = 1.9556525508e-15, Final residual = 1.46388658339e-61, No Iterations 37
DILUPBiCGStab:  Solving for ILambda_67_0, Initial residual = 1.9366815908e-15, Final residual = 7.41426893387e-61, No Iterations 36
DILUPBiCGStab:  Solving for ILambda_68_0, Initial residual = 2.07820467029e-15, Final residual = 2.04521814266e-61, No Iterations 35
DILUPBiCGStab:  Solving for ILambda_69_0, Initial residual = 2.32613736193e-15, Final residual = 1.3839935555e-61, No Iterations 38
DILUPBiCGStab:  Solving for ILambda_70_0, Initial residual = 2.07831990229e-15, Final residual = 4.85140578507e-61, No Iterations 37
DILUPBiCGStab:  Solving for ILambda_71_0, Initial residual = 1.37469377546e-15, Final residual = 2.36449859915e-61, No Iterations 36
DILUPBiCGStab:  Solving for ILambda_72_0, Initial residual = 1.24530200803e-15, Final residual = 4.91748471589e-61, No Iterations 57
DILUPBiCGStab:  Solving for ILambda_73_0, Initial residual = 2.09419540449e-15, Final residual = 1.75731043519e-61, No Iterations 83
DILUPBiCGStab:  Solving for ILambda_74_0, Initial residual = 2.218965485e-15, Final residual = 9.78368165166e-61, No Iterations 100
DILUPBiCGStab:  Solving for ILambda_75_0, Initial residual = 2.3951251277e-15, Final residual = 7.04230286633e-61, No Iterations 116
DILUPBiCGStab:  Solving for ILambda_76_0, Initial residual = 2.46938280288e-15, Final residual = 5.92283227114e-61, No Iterations 114
DILUPBiCGStab:  Solving for ILambda_77_0, Initial residual = 2.46861170026e-15, Final residual = 9.45737602588e-61, No Iterations 103
DILUPBiCGStab:  Solving for ILambda_78_0, Initial residual = 2.08172094582e-15, Final residual = 4.51731399983e-61, No Iterations 82
DILUPBiCGStab:  Solving for ILambda_79_0, Initial residual = 1.3685113578e-15, Final residual = 1.18434257301e-63, No Iterations 53
DILUPBiCGStab:  Solving for ILambda_80_0, Initial residual = 1.4037483851e-15, Final residual = 7.28247572167e-62, No Iterations 2
DILUPBiCGStab:  Solving for ILambda_81_0, Initial residual = 2.02814435509e-15, Final residual = 4.85821617636e-62, No Iterations 2
DILUPBiCGStab:  Solving for ILambda_82_0, Initial residual = 2.27507293073e-15, Final residual = 1.15921478007e-61, No Iterations 2
DILUPBiCGStab:  Solving for ILambda_83_0, Initial residual = 2.14467381809e-15, Final residual = 2.26889526732e-61, No Iterations 2
DILUPBiCGStab:  Solving for ILambda_84_0, Initial residual = 2.06440249426e-15, Final residual = 1.5597273474e-61, No Iterations 2
DILUPBiCGStab:  Solving for ILambda_85_0, Initial residual = 2.06453421225e-15, Final residual = 1.08379485013e-61, No Iterations 2
DILUPBiCGStab:  Solving for ILambda_86_0, Initial residual = 1.8805131299e-15, Final residual = 5.50337056555e-62, No Iterations 2
DILUPBiCGStab:  Solving for ILambda_87_0, Initial residual = 1.27645135865e-15, Final residual = 3.87157219058e-62, No Iterations 2
DILUPBiCGStab:  Solving for ILambda_88_0, Initial residual = 1.37588161681e-15, Final residual = 6.66333277693e-61, No Iterations 53
DILUPBiCGStab:  Solving for ILambda_89_0, Initial residual = 2.11924051846e-15, Final residual = 2.57718769068e-61, No Iterations 82
DILUPBiCGStab:  Solving for ILambda_90_0, Initial residual = 2.65640586573e-15, Final residual = 9.86280937365e-61, No Iterations 103
DILUPBiCGStab:  Solving for ILambda_91_0, Initial residual = 2.14737157253e-15, Final residual = 9.57687039155e-61, No Iterations 115
DILUPBiCGStab:  Solving for ILambda_92_0, Initial residual = 2.52788955557e-15, Final residual = 5.53476926647e-61, No Iterations 114
DILUPBiCGStab:  Solving for ILambda_93_0, Initial residual = 2.82725565874e-15, Final residual = 7.35511892416e-61, No Iterations 101
DILUPBiCGStab:  Solving for ILambda_94_0, Initial residual = 1.91103754238e-15, Final residual = 3.64754642071e-61, No Iterations 83
DILUPBiCGStab:  Solving for ILambda_95_0, Initial residual = 1.24573234346e-15, Final residual = 3.76722036916e-61, No Iterations 57
DILUPBiCGStab:  Solving for ILambda_96_0, Initial residual = 4.87808576107e-16, Final residual = 7.75191436604e-61, No Iterations 28
DILUPBiCGStab:  Solving for ILambda_97_0, Initial residual = 4.93843597079e-16, Final residual = 1.02168371503e-61, No Iterations 29
DILUPBiCGStab:  Solving for ILambda_98_0, Initial residual = 4.92468163814e-16, Final residual = 3.66003019577e-61, No Iterations 29
DILUPBiCGStab:  Solving for ILambda_99_0, Initial residual = 5.09561887489e-16, Final residual = 6.62062317485e-61, No Iterations 30
DILUPBiCGStab:  Solving for ILambda_100_0, Initial residual = 5.15543923837e-16, Final residual = 3.77894998199e-61, No Iterations 29
DILUPBiCGStab:  Solving for ILambda_101_0, Initial residual = 5.38339761883e-16, Final residual = 7.61779209122e-62, No Iterations 29
DILUPBiCGStab:  Solving for ILambda_102_0, Initial residual = 5.36906160252e-16, Final residual = 2.87881356928e-61, No Iterations 27
DILUPBiCGStab:  Solving for ILambda_103_0, Initial residual = 5.15137850014e-16, Final residual = 2.32508160284e-61, No Iterations 28
DILUPBiCGStab:  Solving for ILambda_104_0, Initial residual = 4.87624510835e-16, Final residual = 7.0727347354e-61, No Iterations 48
DILUPBiCGStab:  Solving for ILambda_105_0, Initial residual = 4.91089161415e-16, Final residual = 6.73307651763e-61, No Iterations 73
DILUPBiCGStab:  Solving for ILambda_106_0, Initial residual = 4.86620522307e-16, Final residual = 1.43918918792e-61, No Iterations 88
DILUPBiCGStab:  Solving for ILambda_107_0, Initial residual = 5.00862254025e-16, Final residual = 2.46107568075e-61, No Iterations 99
DILUPBiCGStab:  Solving for ILambda_108_0, Initial residual = 5.30786032461e-16, Final residual = 9.40663172831e-61, No Iterations 100
DILUPBiCGStab:  Solving for ILambda_109_0, Initial residual = 5.51893925682e-16, Final residual = 8.46115905382e-63, No Iterations 89
DILUPBiCGStab:  Solving for ILambda_110_0, Initial residual = 5.48062121821e-16, Final residual = 8.47577205246e-61, No Iterations 72
DILUPBiCGStab:  Solving for ILambda_111_0, Initial residual = 5.26172418582e-16, Final residual = 3.15442911009e-61, No Iterations 46
DILUPBiCGStab:  Solving for ILambda_112_0, Initial residual = 5.37797041265e-16, Final residual = 7.6927959091e-63, No Iterations 2
DILUPBiCGStab:  Solving for ILambda_113_0, Initial residual = 5.54801026748e-16, Final residual = 6.43984961192e-63, No Iterations 2
DILUPBiCGStab:  Solving for ILambda_114_0, Initial residual = 5.52038857963e-16, Final residual = 7.67245390976e-63, No Iterations 2
DILUPBiCGStab:  Solving for ILambda_115_0, Initial residual = 5.33210110903e-16, Final residual = 8.05091999056e-63, No Iterations 2
DILUPBiCGStab:  Solving for ILambda_116_0, Initial residual = 5.18656462481e-16, Final residual = 6.74139479439e-63, No Iterations 2
DILUPBiCGStab:  Solving for ILambda_117_0, Initial residual = 5.06828271766e-16, Final residual = 6.82906850295e-63, No Iterations 2
DILUPBiCGStab:  Solving for ILambda_118_0, Initial residual = 5.10377604268e-16, Final residual = 5.81673427621e-63, No Iterations 2
DILUPBiCGStab:  Solving for ILambda_119_0, Initial residual = 5.09119060098e-16, Final residual = 9.21617501894e-63, No Iterations 2
DILUPBiCGStab:  Solving for ILambda_120_0, Initial residual = 5.26473202991e-16, Final residual = 2.74513606418e-63, No Iterations 47
DILUPBiCGStab:  Solving for ILambda_121_0, Initial residual = 5.49955291775e-16, Final residual = 7.12261113356e-61, No Iterations 70
DILUPBiCGStab:  Solving for ILambda_122_0, Initial residual = 5.4695407608e-16, Final residual = 2.52673433714e-61, No Iterations 91
DILUPBiCGStab:  Solving for ILambda_123_0, Initial residual = 5.11668738019e-16, Final residual = 2.57368081188e-61, No Iterations 103
DILUPBiCGStab:  Solving for ILambda_124_0, Initial residual = 5.00181484454e-16, Final residual = 6.70876723413e-61, No Iterations 96
DILUPBiCGStab:  Solving for ILambda_125_0, Initial residual = 4.80567273264e-16, Final residual = 3.28520374966e-61, No Iterations 90
DILUPBiCGStab:  Solving for ILambda_126_0, Initial residual = 4.92214670413e-16, Final residual = 6.05886110446e-61, No Iterations 73
DILUPBiCGStab:  Solving for ILambda_127_0, Initial residual = 4.84775238217e-16, Final residual = 4.61913846643e-61, No Iterations 49
min/max(T) = 1000, 1000
ExecutionTime = 3049.01 s  ClockTime = 3049 s

writeObjects writeObjects1.writeObjects write:
    writing object a
    writing object qem
End

