/*---------------------------------------------------------------------------*\
| =========                 |                                                 |
| \\      /  F ield         | OpenFOAM: The Open Source CFD Toolbox           |
|  \\    /   O peration     | Version:  2306                                  |
|   \\  /    A nd           | Website:  www.openfoam.com                      |
|    \\/     M anipulation  |                                                 |
\*---------------------------------------------------------------------------*/
Build  : _fbf00d6b-20230626 OPENFOAM=2306 version=2306
Arch   : "LSB;label=32;scalar=64"
Exec   : fireRADFoam_MaCFP
Date   : Mar 12 2024
Time   : 20:48:18
Host   : pop-os
PID    : 191709
I/O    : uncollated
Case   : /home/rafay/Desktop/Study/Radiative_Heat_Transfer/Local_copy_RHT2324/01_Projects/02_Rafay/Case_1_q1D_SolidAngle/new_case3/th_6-ph_12/tau_10/res_4
nProcs : 1
trapFpe: Floating point exception trapping enabled (FOAM_SIGFPE).
fileModificationChecking : Monitoring run-time modified files using timeStampMaster (fileModificationSkew 5, maxFileModificationPolls 20)
allowSystemOperations : Allowing user-supplied system call operations

// * * * * * * * * * * * * * * * * * * * * * * * * * * * * * * * * * * * * * //
Create time

Create mesh for time = 0


PIMPLE: no residual control data found. Calculations will employ 10 corrector loops

Reading thermophysical properties

Selecting thermodynamics package 
{
    type            hePsiThermo;
    mixture         singleStepReactingMixture;
    transport       sutherland;
    thermo          janaf;
    energy          sensibleEnthalpy;
    equationOfState perfectGas;
    specie          specie;
}

Selecting chemistryReader foamChemistryReader
    elements not defined in "/home/rafay/Desktop/Study/Radiative_Heat_Transfer/Local_copy_RHT2324/01_Projects/02_Rafay/Case_1_q1D_SolidAngle/new_case3/th_6-ph_12/tau_10/res_4/constant/reactions"
Fuel heat of combustion :47168962.4726
stoichiometric air-fuel ratio :14.6914056505
stoichiometric oxygen-fuel ratio :3.42181919285
Maximum products mass concentrations:
    H2O: 0.0818486943001
    CO2: 0.199950099979
    N2: 0.718201205721
Creating component thermo properties:
    multi-component carrier - 6 species
    no liquid components
    no solid components
Creating field rho


Reading field U

Reading/calculating face flux field phi

Selecting radiationModel fvDOM
Selecting absorptionEmissionModel constantAbsorptionEmission
Selecting scatterModel none
Selecting sootModel none
fvDOM : Allocated 288 rays with average orientation:
	I0 : dAve : 	(0.000387488209079 0.00591192763451 0.0163624617374) : omega : 	0.0175372336349 : d : 	(0.0169275754541 0.25826489366 0.965925826289)
	I1 : dAve : 	(0.00115583459655 0.00581077291359 0.0163624617374) : omega : 	0.0175372336349 : d : 	(0.050493090853 0.253845909725 0.965925826289)
	I2 : dAve : 	(0.00190440433361 0.00561019425706 0.0163624617374) : omega : 	0.0175372336349 : d : 	(0.083194655468 0.245083551895 0.965925826289)
	I3 : dAve : 	(0.00262038918453 0.00531362362136 0.0163624617374) : omega : 	0.0175372336349 : d : 	(0.114472736462 0.232127746542 0.965925826289)
	I4 : dAve : 	(0.00329153844998 0.00492613541228 0.0163624617374) : omega : 	0.0175372336349 : d : 	(0.143792157198 0.215200171088 0.965925826289)
	I5 : dAve : 	(0.00390636857998 0.00445435966052 0.0163624617374) : omega : 	0.0175372336349 : d : 	(0.170651254257 0.194590461042 0.965925826289)
	I6 : dAve : 	(0.00445435966052 0.00390636857998 0.0163624617374) : omega : 	0.0175372336349 : d : 	(0.194590461042 0.170651254257 0.965925826289)
	I7 : dAve : 	(0.00492613541228 0.00329153844998 0.0163624617374) : omega : 	0.0175372336349 : d : 	(0.215200171088 0.143792157198 0.965925826289)
	I8 : dAve : 	(0.00531362362136 0.00262038918453 0.0163624617374) : omega : 	0.0175372336349 : d : 	(0.232127746542 0.114472736462 0.965925826289)
	I9 : dAve : 	(0.00561019425706 0.00190440433361 0.0163624617374) : omega : 	0.0175372336349 : d : 	(0.245083551895 0.083194655468 0.965925826289)
	I10 : dAve : 	(0.00581077291359 0.00115583459655 0.0163624617374) : omega : 	0.0175372336349 : d : 	(0.253845909725 0.050493090853 0.965925826289)
	I11 : dAve : 	(0.00591192763451 0.000387488209079 0.0163624617374) : omega : 	0.0175372336349 : d : 	(0.25826489366 0.0169275754541 0.965925826289)
	I12 : dAve : 	(0.00591192763451 -0.000387488209079 0.0163624617374) : omega : 	0.0175372336349 : d : 	(0.25826489366 -0.0169275754541 0.965925826289)
	I13 : dAve : 	(0.00581077291359 -0.00115583459655 0.0163624617374) : omega : 	0.0175372336349 : d : 	(0.253845909725 -0.050493090853 0.965925826289)
	I14 : dAve : 	(0.00561019425706 -0.00190440433361 0.0163624617374) : omega : 	0.0175372336349 : d : 	(0.245083551895 -0.083194655468 0.965925826289)
	I15 : dAve : 	(0.00531362362136 -0.00262038918453 0.0163624617374) : omega : 	0.0175372336349 : d : 	(0.232127746542 -0.114472736462 0.965925826289)
	I16 : dAve : 	(0.00492613541228 -0.00329153844998 0.0163624617374) : omega : 	0.0175372336349 : d : 	(0.215200171088 -0.143792157198 0.965925826289)
	I17 : dAve : 	(0.00445435966052 -0.00390636857998 0.0163624617374) : omega : 	0.0175372336349 : d : 	(0.194590461042 -0.170651254257 0.965925826289)
	I18 : dAve : 	(0.00390636857998 -0.00445435966052 0.0163624617374) : omega : 	0.0175372336349 : d : 	(0.170651254257 -0.194590461042 0.965925826289)
	I19 : dAve : 	(0.00329153844998 -0.00492613541228 0.0163624617374) : omega : 	0.0175372336349 : d : 	(0.143792157198 -0.215200171088 0.965925826289)
	I20 : dAve : 	(0.00262038918453 -0.00531362362136 0.0163624617374) : omega : 	0.0175372336349 : d : 	(0.114472736462 -0.232127746542 0.965925826289)
	I21 : dAve : 	(0.00190440433361 -0.00561019425706 0.0163624617374) : omega : 	0.0175372336349 : d : 	(0.083194655468 -0.245083551895 0.965925826289)
	I22 : dAve : 	(0.00115583459655 -0.00581077291359 0.0163624617374) : omega : 	0.0175372336349 : d : 	(0.050493090853 -0.253845909725 0.965925826289)
	I23 : dAve : 	(0.000387488209079 -0.00591192763451 0.0163624617374) : omega : 	0.0175372336349 : d : 	(0.0169275754541 -0.25826489366 0.965925826289)
	I24 : dAve : 	(-0.000387488209079 -0.00591192763451 0.0163624617374) : omega : 	0.0175372336349 : d : 	(-0.0169275754541 -0.25826489366 0.965925826289)
	I25 : dAve : 	(-0.00115583459655 -0.00581077291359 0.0163624617374) : omega : 	0.0175372336349 : d : 	(-0.050493090853 -0.253845909725 0.965925826289)
	I26 : dAve : 	(-0.00190440433361 -0.00561019425706 0.0163624617374) : omega : 	0.0175372336349 : d : 	(-0.083194655468 -0.245083551895 0.965925826289)
	I27 : dAve : 	(-0.00262038918453 -0.00531362362136 0.0163624617374) : omega : 	0.0175372336349 : d : 	(-0.114472736462 -0.232127746542 0.965925826289)
	I28 : dAve : 	(-0.00329153844998 -0.00492613541228 0.0163624617374) : omega : 	0.0175372336349 : d : 	(-0.143792157198 -0.215200171088 0.965925826289)
	I29 : dAve : 	(-0.00390636857998 -0.00445435966052 0.0163624617374) : omega : 	0.0175372336349 : d : 	(-0.170651254257 -0.194590461042 0.965925826289)
	I30 : dAve : 	(-0.00445435966052 -0.00390636857998 0.0163624617374) : omega : 	0.0175372336349 : d : 	(-0.194590461042 -0.170651254257 0.965925826289)
	I31 : dAve : 	(-0.00492613541228 -0.00329153844998 0.0163624617374) : omega : 	0.0175372336349 : d : 	(-0.215200171088 -0.143792157198 0.965925826289)
	I32 : dAve : 	(-0.00531362362136 -0.00262038918453 0.0163624617374) : omega : 	0.0175372336349 : d : 	(-0.232127746542 -0.114472736462 0.965925826289)
	I33 : dAve : 	(-0.00561019425706 -0.00190440433361 0.0163624617374) : omega : 	0.0175372336349 : d : 	(-0.245083551895 -0.083194655468 0.965925826289)
	I34 : dAve : 	(-0.00581077291359 -0.00115583459655 0.0163624617374) : omega : 	0.0175372336349 : d : 	(-0.253845909725 -0.050493090853 0.965925826289)
	I35 : dAve : 	(-0.00591192763451 -0.000387488209079 0.0163624617374) : omega : 	0.0175372336349 : d : 	(-0.25826489366 -0.0169275754541 0.965925826289)
	I36 : dAve : 	(-0.00591192763451 0.000387488209079 0.0163624617374) : omega : 	0.0175372336349 : d : 	(-0.25826489366 0.0169275754541 0.965925826289)
	I37 : dAve : 	(-0.00581077291359 0.00115583459655 0.0163624617374) : omega : 	0.0175372336349 : d : 	(-0.253845909725 0.050493090853 0.965925826289)
	I38 : dAve : 	(-0.00561019425706 0.00190440433361 0.0163624617374) : omega : 	0.0175372336349 : d : 	(-0.245083551895 0.083194655468 0.965925826289)
	I39 : dAve : 	(-0.00531362362136 0.00262038918453 0.0163624617374) : omega : 	0.0175372336349 : d : 	(-0.232127746542 0.114472736462 0.965925826289)
	I40 : dAve : 	(-0.00492613541228 0.00329153844998 0.0163624617374) : omega : 	0.0175372336349 : d : 	(-0.215200171088 0.143792157198 0.965925826289)
	I41 : dAve : 	(-0.00445435966052 0.00390636857998 0.0163624617374) : omega : 	0.0175372336349 : d : 	(-0.194590461042 0.170651254257 0.965925826289)
	I42 : dAve : 	(-0.00390636857998 0.00445435966052 0.0163624617374) : omega : 	0.0175372336349 : d : 	(-0.170651254257 0.194590461042 0.965925826289)
	I43 : dAve : 	(-0.00329153844998 0.00492613541228 0.0163624617374) : omega : 	0.0175372336349 : d : 	(-0.143792157198 0.215200171088 0.965925826289)
	I44 : dAve : 	(-0.00262038918453 0.00531362362136 0.0163624617374) : omega : 	0.0175372336349 : d : 	(-0.114472736462 0.232127746542 0.965925826289)
	I45 : dAve : 	(-0.00190440433361 0.00561019425706 0.0163624617374) : omega : 	0.0175372336349 : d : 	(-0.083194655468 0.245083551895 0.965925826289)
	I46 : dAve : 	(-0.00115583459655 0.00581077291359 0.0163624617374) : omega : 	0.0175372336349 : d : 	(-0.050493090853 0.253845909725 0.965925826289)
	I47 : dAve : 	(-0.000387488209079 0.00591192763451 0.0163624617374) : omega : 	0.0175372336349 : d : 	(-0.0169275754541 0.25826489366 0.965925826289)
	I48 : dAve : 	(0.00223973005487 0.034171677215 0.0327249234749) : omega : 	0.0479126133149 : d : 	(0.0462469961895 0.70559281129 0.707106781187)
	I49 : dAve : 	(0.00668086776241 0.0335869903436 0.0327249234749) : omega : 	0.0479126133149 : d : 	(0.137949689641 0.693519922661 0.707106781187)
	I50 : dAve : 	(0.0110076939702 0.0324276207555 0.0327249234749) : omega : 	0.0479126133149 : d : 	(0.227292025657 0.669580715876 0.707106781187)
	I51 : dAve : 	(0.0151461754823 0.0307134055855 0.0327249234749) : omega : 	0.0479126133149 : d : 	(0.312745332096 0.634184797399 0.707106781187)
	I52 : dAve : 	(0.0190255017326 0.0284736755306 0.0327249234749) : omega : 	0.0479126133149 : d : 	(0.392847479194 0.58793780121 0.707106781187)
	I53 : dAve : 	(0.0225792963734 0.025746752993 0.0327249234749) : omega : 	0.0479126133149 : d : 	(0.466227897004 0.531631026234 0.707106781187)
	I54 : dAve : 	(0.025746752993 0.0225792963734 0.0327249234749) : omega : 	0.0479126133149 : d : 	(0.531631026234 0.466227897004 0.707106781187)
	I55 : dAve : 	(0.0284736755306 0.0190255017326 0.0327249234749) : omega : 	0.0479126133149 : d : 	(0.58793780121 0.392847479194 0.707106781187)
	I56 : dAve : 	(0.0307134055855 0.0151461754823 0.0327249234749) : omega : 	0.0479126133149 : d : 	(0.634184797399 0.312745332096 0.707106781187)
	I57 : dAve : 	(0.0324276207555 0.0110076939702 0.0327249234749) : omega : 	0.0479126133149 : d : 	(0.669580715876 0.227292025657 0.707106781187)
	I58 : dAve : 	(0.0335869903436 0.00668086776241 0.0327249234749) : omega : 	0.0479126133149 : d : 	(0.693519922661 0.137949689641 0.707106781187)
	I59 : dAve : 	(0.034171677215 0.00223973005487 0.0327249234749) : omega : 	0.0479126133149 : d : 	(0.70559281129 0.0462469961895 0.707106781187)
	I60 : dAve : 	(0.034171677215 -0.00223973005487 0.0327249234749) : omega : 	0.0479126133149 : d : 	(0.70559281129 -0.0462469961895 0.707106781187)
	I61 : dAve : 	(0.0335869903436 -0.00668086776241 0.0327249234749) : omega : 	0.0479126133149 : d : 	(0.693519922661 -0.137949689641 0.707106781187)
	I62 : dAve : 	(0.0324276207555 -0.0110076939702 0.0327249234749) : omega : 	0.0479126133149 : d : 	(0.669580715876 -0.227292025657 0.707106781187)
	I63 : dAve : 	(0.0307134055855 -0.0151461754823 0.0327249234749) : omega : 	0.0479126133149 : d : 	(0.634184797399 -0.312745332096 0.707106781187)
	I64 : dAve : 	(0.0284736755306 -0.0190255017326 0.0327249234749) : omega : 	0.0479126133149 : d : 	(0.58793780121 -0.392847479194 0.707106781187)
	I65 : dAve : 	(0.025746752993 -0.0225792963734 0.0327249234749) : omega : 	0.0479126133149 : d : 	(0.531631026234 -0.466227897004 0.707106781187)
	I66 : dAve : 	(0.0225792963734 -0.025746752993 0.0327249234749) : omega : 	0.0479126133149 : d : 	(0.466227897004 -0.531631026234 0.707106781187)
	I67 : dAve : 	(0.0190255017326 -0.0284736755306 0.0327249234749) : omega : 	0.0479126133149 : d : 	(0.392847479194 -0.58793780121 0.707106781187)
	I68 : dAve : 	(0.0151461754823 -0.0307134055855 0.0327249234749) : omega : 	0.0479126133149 : d : 	(0.312745332096 -0.634184797399 0.707106781187)
	I69 : dAve : 	(0.0110076939702 -0.0324276207555 0.0327249234749) : omega : 	0.0479126133149 : d : 	(0.227292025657 -0.669580715876 0.707106781187)
	I70 : dAve : 	(0.00668086776241 -0.0335869903436 0.0327249234749) : omega : 	0.0479126133149 : d : 	(0.137949689641 -0.693519922661 0.707106781187)
	I71 : dAve : 	(0.00223973005487 -0.034171677215 0.0327249234749) : omega : 	0.0479126133149 : d : 	(0.0462469961895 -0.70559281129 0.707106781187)
	I72 : dAve : 	(-0.00223973005487 -0.034171677215 0.0327249234749) : omega : 	0.0479126133149 : d : 	(-0.0462469961895 -0.70559281129 0.707106781187)
	I73 : dAve : 	(-0.00668086776241 -0.0335869903436 0.0327249234749) : omega : 	0.0479126133149 : d : 	(-0.137949689641 -0.693519922661 0.707106781187)
	I74 : dAve : 	(-0.0110076939702 -0.0324276207555 0.0327249234749) : omega : 	0.0479126133149 : d : 	(-0.227292025657 -0.669580715876 0.707106781187)
	I75 : dAve : 	(-0.0151461754823 -0.0307134055855 0.0327249234749) : omega : 	0.0479126133149 : d : 	(-0.312745332096 -0.634184797399 0.707106781187)
	I76 : dAve : 	(-0.0190255017326 -0.0284736755306 0.0327249234749) : omega : 	0.0479126133149 : d : 	(-0.392847479194 -0.58793780121 0.707106781187)
	I77 : dAve : 	(-0.0225792963734 -0.025746752993 0.0327249234749) : omega : 	0.0479126133149 : d : 	(-0.466227897004 -0.531631026234 0.707106781187)
	I78 : dAve : 	(-0.025746752993 -0.0225792963734 0.0327249234749) : omega : 	0.0479126133149 : d : 	(-0.531631026234 -0.466227897004 0.707106781187)
	I79 : dAve : 	(-0.0284736755306 -0.0190255017326 0.0327249234749) : omega : 	0.0479126133149 : d : 	(-0.58793780121 -0.392847479194 0.707106781187)
	I80 : dAve : 	(-0.0307134055855 -0.0151461754823 0.0327249234749) : omega : 	0.0479126133149 : d : 	(-0.634184797399 -0.312745332096 0.707106781187)
	I81 : dAve : 	(-0.0324276207555 -0.0110076939702 0.0327249234749) : omega : 	0.0479126133149 : d : 	(-0.669580715876 -0.227292025657 0.707106781187)
	I82 : dAve : 	(-0.0335869903436 -0.00668086776241 0.0327249234749) : omega : 	0.0479126133149 : d : 	(-0.693519922661 -0.137949689641 0.707106781187)
	I83 : dAve : 	(-0.034171677215 -0.00223973005487 0.0327249234749) : omega : 	0.0479126133149 : d : 	(-0.70559281129 -0.0462469961895 0.707106781187)
	I84 : dAve : 	(-0.034171677215 0.00223973005487 0.0327249234749) : omega : 	0.0479126133149 : d : 	(-0.70559281129 0.0462469961895 0.707106781187)
	I85 : dAve : 	(-0.0335869903436 0.00668086776241 0.0327249234749) : omega : 	0.0479126133149 : d : 	(-0.693519922661 0.137949689641 0.707106781187)
	I86 : dAve : 	(-0.0324276207555 0.0110076939702 0.0327249234749) : omega : 	0.0479126133149 : d : 	(-0.669580715876 0.227292025657 0.707106781187)
	I87 : dAve : 	(-0.0307134055855 0.0151461754823 0.0327249234749) : omega : 	0.0479126133149 : d : 	(-0.634184797399 0.312745332096 0.707106781187)
	I88 : dAve : 	(-0.0284736755306 0.0190255017326 0.0327249234749) : omega : 	0.0479126133149 : d : 	(-0.58793780121 0.392847479194 0.707106781187)
	I89 : dAve : 	(-0.025746752993 0.0225792963734 0.0327249234749) : omega : 	0.0479126133149 : d : 	(-0.531631026234 0.466227897004 0.707106781187)
	I90 : dAve : 	(-0.0225792963734 0.025746752993 0.0327249234749) : omega : 	0.0479126133149 : d : 	(-0.466227897004 0.531631026234 0.707106781187)
	I91 : dAve : 	(-0.0190255017326 0.0284736755306 0.0327249234749) : omega : 	0.0479126133149 : d : 	(-0.392847479194 0.58793780121 0.707106781187)
	I92 : dAve : 	(-0.0151461754823 0.0307134055855 0.0327249234749) : omega : 	0.0479126133149 : d : 	(-0.312745332096 0.634184797399 0.707106781187)
	I93 : dAve : 	(-0.0110076939702 0.0324276207555 0.0327249234749) : omega : 	0.0479126133149 : d : 	(-0.227292025657 0.669580715876 0.707106781187)
	I94 : dAve : 	(-0.00668086776241 0.0335869903436 0.0327249234749) : omega : 	0.0479126133149 : d : 	(-0.137949689641 0.693519922661 0.707106781187)
	I95 : dAve : 	(-0.00223973005487 0.034171677215 0.0327249234749) : omega : 	0.0479126133149 : d : 	(-0.0462469961895 0.70559281129 0.707106781187)
	I96 : dAve : 	(0.00409197190067 0.0624314267954 0.0163624617374) : omega : 	0.0654498469498 : d : 	(0.0631745716435 0.963857704949 0.258819045103)
	I97 : dAve : 	(0.0122059009283 0.0613632077737 0.0163624617374) : omega : 	0.0654498469498 : d : 	(0.188442780494 0.947365832386 0.258819045103)
	I98 : dAve : 	(0.0201109836069 0.0592450472539 0.0163624617374) : omega : 	0.0654498469498 : d : 	(0.310486681125 0.914664267771 0.258819045103)
	I99 : dAve : 	(0.0276719617802 0.0561131875497 0.0163624617374) : omega : 	0.0654498469498 : d : 	(0.427218068558 0.866312543941 0.258819045103)
	I100 : dAve : 	(0.0347594650153 0.052021215649 0.0163624617374) : omega : 	0.0654498469498 : d : 	(0.536639636391 0.803137972298 0.258819045103)
	I101 : dAve : 	(0.0412522241668 0.0470391463256 0.0163624617374) : omega : 	0.0654498469498 : d : 	(0.636879151261 0.726221487276 0.258819045103)
	I102 : dAve : 	(0.0470391463256 0.0412522241668 0.0163624617374) : omega : 	0.0654498469498 : d : 	(0.726221487276 0.636879151261 0.258819045103)
	I103 : dAve : 	(0.052021215649 0.0347594650153 0.0163624617374) : omega : 	0.0654498469498 : d : 	(0.803137972298 0.536639636391 0.258819045103)
	I104 : dAve : 	(0.0561131875497 0.0276719617802 0.0163624617374) : omega : 	0.0654498469498 : d : 	(0.866312543941 0.427218068558 0.258819045103)
	I105 : dAve : 	(0.0592450472539 0.0201109836069 0.0163624617374) : omega : 	0.0654498469498 : d : 	(0.914664267771 0.310486681125 0.258819045103)
	I106 : dAve : 	(0.0613632077737 0.0122059009283 0.0163624617374) : omega : 	0.0654498469498 : d : 	(0.947365832386 0.188442780494 0.258819045103)
	I107 : dAve : 	(0.0624314267954 0.00409197190067 0.0163624617374) : omega : 	0.0654498469498 : d : 	(0.963857704949 0.0631745716435 0.258819045103)
	I108 : dAve : 	(0.0624314267954 -0.00409197190067 0.0163624617374) : omega : 	0.0654498469498 : d : 	(0.963857704949 -0.0631745716435 0.258819045103)
	I109 : dAve : 	(0.0613632077737 -0.0122059009283 0.0163624617374) : omega : 	0.0654498469498 : d : 	(0.947365832386 -0.188442780494 0.258819045103)
	I110 : dAve : 	(0.0592450472539 -0.0201109836069 0.0163624617374) : omega : 	0.0654498469498 : d : 	(0.914664267771 -0.310486681125 0.258819045103)
	I111 : dAve : 	(0.0561131875497 -0.0276719617802 0.0163624617374) : omega : 	0.0654498469498 : d : 	(0.866312543941 -0.427218068558 0.258819045103)
	I112 : dAve : 	(0.052021215649 -0.0347594650153 0.0163624617374) : omega : 	0.0654498469498 : d : 	(0.803137972298 -0.536639636391 0.258819045103)
	I113 : dAve : 	(0.0470391463256 -0.0412522241668 0.0163624617374) : omega : 	0.0654498469498 : d : 	(0.726221487276 -0.636879151261 0.258819045103)
	I114 : dAve : 	(0.0412522241668 -0.0470391463256 0.0163624617374) : omega : 	0.0654498469498 : d : 	(0.636879151261 -0.726221487276 0.258819045103)
	I115 : dAve : 	(0.0347594650153 -0.052021215649 0.0163624617374) : omega : 	0.0654498469498 : d : 	(0.536639636391 -0.803137972298 0.258819045103)
	I116 : dAve : 	(0.0276719617802 -0.0561131875497 0.0163624617374) : omega : 	0.0654498469498 : d : 	(0.427218068558 -0.866312543941 0.258819045103)
	I117 : dAve : 	(0.0201109836069 -0.0592450472539 0.0163624617374) : omega : 	0.0654498469498 : d : 	(0.310486681125 -0.914664267771 0.258819045103)
	I118 : dAve : 	(0.0122059009283 -0.0613632077737 0.0163624617374) : omega : 	0.0654498469498 : d : 	(0.188442780494 -0.947365832386 0.258819045103)
	I119 : dAve : 	(0.00409197190067 -0.0624314267954 0.0163624617374) : omega : 	0.0654498469498 : d : 	(0.0631745716435 -0.963857704949 0.258819045103)
	I120 : dAve : 	(-0.00409197190067 -0.0624314267954 0.0163624617374) : omega : 	0.0654498469498 : d : 	(-0.0631745716435 -0.963857704949 0.258819045103)
	I121 : dAve : 	(-0.0122059009283 -0.0613632077737 0.0163624617374) : omega : 	0.0654498469498 : d : 	(-0.188442780494 -0.947365832386 0.258819045103)
	I122 : dAve : 	(-0.0201109836069 -0.0592450472539 0.0163624617374) : omega : 	0.0654498469498 : d : 	(-0.310486681125 -0.914664267771 0.258819045103)
	I123 : dAve : 	(-0.0276719617802 -0.0561131875497 0.0163624617374) : omega : 	0.0654498469498 : d : 	(-0.427218068558 -0.866312543941 0.258819045103)
	I124 : dAve : 	(-0.0347594650153 -0.052021215649 0.0163624617374) : omega : 	0.0654498469498 : d : 	(-0.536639636391 -0.803137972298 0.258819045103)
	I125 : dAve : 	(-0.0412522241668 -0.0470391463256 0.0163624617374) : omega : 	0.0654498469498 : d : 	(-0.636879151261 -0.726221487276 0.258819045103)
	I126 : dAve : 	(-0.0470391463256 -0.0412522241668 0.0163624617374) : omega : 	0.0654498469498 : d : 	(-0.726221487276 -0.636879151261 0.258819045103)
	I127 : dAve : 	(-0.052021215649 -0.0347594650153 0.0163624617374) : omega : 	0.0654498469498 : d : 	(-0.803137972298 -0.536639636391 0.258819045103)
	I128 : dAve : 	(-0.0561131875497 -0.0276719617802 0.0163624617374) : omega : 	0.0654498469498 : d : 	(-0.866312543941 -0.427218068558 0.258819045103)
	I129 : dAve : 	(-0.0592450472539 -0.0201109836069 0.0163624617374) : omega : 	0.0654498469498 : d : 	(-0.914664267771 -0.310486681125 0.258819045103)
	I130 : dAve : 	(-0.0613632077737 -0.0122059009283 0.0163624617374) : omega : 	0.0654498469498 : d : 	(-0.947365832386 -0.188442780494 0.258819045103)
	I131 : dAve : 	(-0.0624314267954 -0.00409197190067 0.0163624617374) : omega : 	0.0654498469498 : d : 	(-0.963857704949 -0.0631745716435 0.258819045103)
	I132 : dAve : 	(-0.0624314267954 0.00409197190067 0.0163624617374) : omega : 	0.0654498469498 : d : 	(-0.963857704949 0.0631745716435 0.258819045103)
	I133 : dAve : 	(-0.0613632077737 0.0122059009283 0.0163624617374) : omega : 	0.0654498469498 : d : 	(-0.947365832386 0.188442780494 0.258819045103)
	I134 : dAve : 	(-0.0592450472539 0.0201109836069 0.0163624617374) : omega : 	0.0654498469498 : d : 	(-0.914664267771 0.310486681125 0.258819045103)
	I135 : dAve : 	(-0.0561131875497 0.0276719617802 0.0163624617374) : omega : 	0.0654498469498 : d : 	(-0.866312543941 0.427218068558 0.258819045103)
	I136 : dAve : 	(-0.052021215649 0.0347594650153 0.0163624617374) : omega : 	0.0654498469498 : d : 	(-0.803137972298 0.536639636391 0.258819045103)
	I137 : dAve : 	(-0.0470391463256 0.0412522241668 0.0163624617374) : omega : 	0.0654498469498 : d : 	(-0.726221487276 0.636879151261 0.258819045103)
	I138 : dAve : 	(-0.0412522241668 0.0470391463256 0.0163624617374) : omega : 	0.0654498469498 : d : 	(-0.636879151261 0.726221487276 0.258819045103)
	I139 : dAve : 	(-0.0347594650153 0.052021215649 0.0163624617374) : omega : 	0.0654498469498 : d : 	(-0.536639636391 0.803137972298 0.258819045103)
	I140 : dAve : 	(-0.0276719617802 0.0561131875497 0.0163624617374) : omega : 	0.0654498469498 : d : 	(-0.427218068558 0.866312543941 0.258819045103)
	I141 : dAve : 	(-0.0201109836069 0.0592450472539 0.0163624617374) : omega : 	0.0654498469498 : d : 	(-0.310486681125 0.914664267771 0.258819045103)
	I142 : dAve : 	(-0.0122059009283 0.0613632077737 0.0163624617374) : omega : 	0.0654498469498 : d : 	(-0.188442780494 0.947365832386 0.258819045103)
	I143 : dAve : 	(-0.00409197190067 0.0624314267954 0.0163624617374) : omega : 	0.0654498469498 : d : 	(-0.0631745716435 0.963857704949 0.258819045103)
	I144 : dAve : 	(0.00409197190067 0.0624314267954 -0.0163624617374) : omega : 	0.0654498469498 : d : 	(0.0631745716435 0.963857704949 -0.258819045103)
	I145 : dAve : 	(0.0122059009283 0.0613632077737 -0.0163624617374) : omega : 	0.0654498469498 : d : 	(0.188442780494 0.947365832386 -0.258819045103)
	I146 : dAve : 	(0.0201109836069 0.0592450472539 -0.0163624617374) : omega : 	0.0654498469498 : d : 	(0.310486681125 0.914664267771 -0.258819045103)
	I147 : dAve : 	(0.0276719617802 0.0561131875497 -0.0163624617374) : omega : 	0.0654498469498 : d : 	(0.427218068558 0.866312543941 -0.258819045103)
	I148 : dAve : 	(0.0347594650153 0.052021215649 -0.0163624617374) : omega : 	0.0654498469498 : d : 	(0.536639636391 0.803137972298 -0.258819045103)
	I149 : dAve : 	(0.0412522241668 0.0470391463256 -0.0163624617374) : omega : 	0.0654498469498 : d : 	(0.636879151261 0.726221487276 -0.258819045103)
	I150 : dAve : 	(0.0470391463256 0.0412522241668 -0.0163624617374) : omega : 	0.0654498469498 : d : 	(0.726221487276 0.636879151261 -0.258819045103)
	I151 : dAve : 	(0.052021215649 0.0347594650153 -0.0163624617374) : omega : 	0.0654498469498 : d : 	(0.803137972298 0.536639636391 -0.258819045103)
	I152 : dAve : 	(0.0561131875497 0.0276719617802 -0.0163624617374) : omega : 	0.0654498469498 : d : 	(0.866312543941 0.427218068558 -0.258819045103)
	I153 : dAve : 	(0.0592450472539 0.0201109836069 -0.0163624617374) : omega : 	0.0654498469498 : d : 	(0.914664267771 0.310486681125 -0.258819045103)
	I154 : dAve : 	(0.0613632077737 0.0122059009283 -0.0163624617374) : omega : 	0.0654498469498 : d : 	(0.947365832386 0.188442780494 -0.258819045103)
	I155 : dAve : 	(0.0624314267954 0.00409197190067 -0.0163624617374) : omega : 	0.0654498469498 : d : 	(0.963857704949 0.0631745716435 -0.258819045103)
	I156 : dAve : 	(0.0624314267954 -0.00409197190067 -0.0163624617374) : omega : 	0.0654498469498 : d : 	(0.963857704949 -0.0631745716435 -0.258819045103)
	I157 : dAve : 	(0.0613632077737 -0.0122059009283 -0.0163624617374) : omega : 	0.0654498469498 : d : 	(0.947365832386 -0.188442780494 -0.258819045103)
	I158 : dAve : 	(0.0592450472539 -0.0201109836069 -0.0163624617374) : omega : 	0.0654498469498 : d : 	(0.914664267771 -0.310486681125 -0.258819045103)
	I159 : dAve : 	(0.0561131875497 -0.0276719617802 -0.0163624617374) : omega : 	0.0654498469498 : d : 	(0.866312543941 -0.427218068558 -0.258819045103)
	I160 : dAve : 	(0.052021215649 -0.0347594650153 -0.0163624617374) : omega : 	0.0654498469498 : d : 	(0.803137972298 -0.536639636391 -0.258819045103)
	I161 : dAve : 	(0.0470391463256 -0.0412522241668 -0.0163624617374) : omega : 	0.0654498469498 : d : 	(0.726221487276 -0.636879151261 -0.258819045103)
	I162 : dAve : 	(0.0412522241668 -0.0470391463256 -0.0163624617374) : omega : 	0.0654498469498 : d : 	(0.636879151261 -0.726221487276 -0.258819045103)
	I163 : dAve : 	(0.0347594650153 -0.052021215649 -0.0163624617374) : omega : 	0.0654498469498 : d : 	(0.536639636391 -0.803137972298 -0.258819045103)
	I164 : dAve : 	(0.0276719617802 -0.0561131875497 -0.0163624617374) : omega : 	0.0654498469498 : d : 	(0.427218068558 -0.866312543941 -0.258819045103)
	I165 : dAve : 	(0.0201109836069 -0.0592450472539 -0.0163624617374) : omega : 	0.0654498469498 : d : 	(0.310486681125 -0.914664267771 -0.258819045103)
	I166 : dAve : 	(0.0122059009283 -0.0613632077737 -0.0163624617374) : omega : 	0.0654498469498 : d : 	(0.188442780494 -0.947365832386 -0.258819045103)
	I167 : dAve : 	(0.00409197190067 -0.0624314267954 -0.0163624617374) : omega : 	0.0654498469498 : d : 	(0.0631745716435 -0.963857704949 -0.258819045103)
	I168 : dAve : 	(-0.00409197190067 -0.0624314267954 -0.0163624617374) : omega : 	0.0654498469498 : d : 	(-0.0631745716435 -0.963857704949 -0.258819045103)
	I169 : dAve : 	(-0.0122059009283 -0.0613632077737 -0.0163624617374) : omega : 	0.0654498469498 : d : 	(-0.188442780494 -0.947365832386 -0.258819045103)
	I170 : dAve : 	(-0.0201109836069 -0.0592450472539 -0.0163624617374) : omega : 	0.0654498469498 : d : 	(-0.310486681125 -0.914664267771 -0.258819045103)
	I171 : dAve : 	(-0.0276719617802 -0.0561131875497 -0.0163624617374) : omega : 	0.0654498469498 : d : 	(-0.427218068558 -0.866312543941 -0.258819045103)
	I172 : dAve : 	(-0.0347594650153 -0.052021215649 -0.0163624617374) : omega : 	0.0654498469498 : d : 	(-0.536639636391 -0.803137972298 -0.258819045103)
	I173 : dAve : 	(-0.0412522241668 -0.0470391463256 -0.0163624617374) : omega : 	0.0654498469498 : d : 	(-0.636879151261 -0.726221487276 -0.258819045103)
	I174 : dAve : 	(-0.0470391463256 -0.0412522241668 -0.0163624617374) : omega : 	0.0654498469498 : d : 	(-0.726221487276 -0.636879151261 -0.258819045103)
	I175 : dAve : 	(-0.052021215649 -0.0347594650153 -0.0163624617374) : omega : 	0.0654498469498 : d : 	(-0.803137972298 -0.536639636391 -0.258819045103)
	I176 : dAve : 	(-0.0561131875497 -0.0276719617802 -0.0163624617374) : omega : 	0.0654498469498 : d : 	(-0.866312543941 -0.427218068558 -0.258819045103)
	I177 : dAve : 	(-0.0592450472539 -0.0201109836069 -0.0163624617374) : omega : 	0.0654498469498 : d : 	(-0.914664267771 -0.310486681125 -0.258819045103)
	I178 : dAve : 	(-0.0613632077737 -0.0122059009283 -0.0163624617374) : omega : 	0.0654498469498 : d : 	(-0.947365832386 -0.188442780494 -0.258819045103)
	I179 : dAve : 	(-0.0624314267954 -0.00409197190067 -0.0163624617374) : omega : 	0.0654498469498 : d : 	(-0.963857704949 -0.0631745716435 -0.258819045103)
	I180 : dAve : 	(-0.0624314267954 0.00409197190067 -0.0163624617374) : omega : 	0.0654498469498 : d : 	(-0.963857704949 0.0631745716435 -0.258819045103)
	I181 : dAve : 	(-0.0613632077737 0.0122059009283 -0.0163624617374) : omega : 	0.0654498469498 : d : 	(-0.947365832386 0.188442780494 -0.258819045103)
	I182 : dAve : 	(-0.0592450472539 0.0201109836069 -0.0163624617374) : omega : 	0.0654498469498 : d : 	(-0.914664267771 0.310486681125 -0.258819045103)
	I183 : dAve : 	(-0.0561131875497 0.0276719617802 -0.0163624617374) : omega : 	0.0654498469498 : d : 	(-0.866312543941 0.427218068558 -0.258819045103)
	I184 : dAve : 	(-0.052021215649 0.0347594650153 -0.0163624617374) : omega : 	0.0654498469498 : d : 	(-0.803137972298 0.536639636391 -0.258819045103)
	I185 : dAve : 	(-0.0470391463256 0.0412522241668 -0.0163624617374) : omega : 	0.0654498469498 : d : 	(-0.726221487276 0.636879151261 -0.258819045103)
	I186 : dAve : 	(-0.0412522241668 0.0470391463256 -0.0163624617374) : omega : 	0.0654498469498 : d : 	(-0.636879151261 0.726221487276 -0.258819045103)
	I187 : dAve : 	(-0.0347594650153 0.052021215649 -0.0163624617374) : omega : 	0.0654498469498 : d : 	(-0.536639636391 0.803137972298 -0.258819045103)
	I188 : dAve : 	(-0.0276719617802 0.0561131875497 -0.0163624617374) : omega : 	0.0654498469498 : d : 	(-0.427218068558 0.866312543941 -0.258819045103)
	I189 : dAve : 	(-0.0201109836069 0.0592450472539 -0.0163624617374) : omega : 	0.0654498469498 : d : 	(-0.310486681125 0.914664267771 -0.258819045103)
	I190 : dAve : 	(-0.0122059009283 0.0613632077737 -0.0163624617374) : omega : 	0.0654498469498 : d : 	(-0.188442780494 0.947365832386 -0.258819045103)
	I191 : dAve : 	(-0.00409197190067 0.0624314267954 -0.0163624617374) : omega : 	0.0654498469498 : d : 	(-0.0631745716435 0.963857704949 -0.258819045103)
	I192 : dAve : 	(0.00223973005487 0.034171677215 -0.0327249234749) : omega : 	0.0479126133149 : d : 	(0.0462469961895 0.70559281129 -0.707106781187)
	I193 : dAve : 	(0.00668086776241 0.0335869903436 -0.0327249234749) : omega : 	0.0479126133149 : d : 	(0.137949689641 0.693519922661 -0.707106781187)
	I194 : dAve : 	(0.0110076939702 0.0324276207555 -0.0327249234749) : omega : 	0.0479126133149 : d : 	(0.227292025657 0.669580715876 -0.707106781187)
	I195 : dAve : 	(0.0151461754823 0.0307134055855 -0.0327249234749) : omega : 	0.0479126133149 : d : 	(0.312745332096 0.634184797399 -0.707106781187)
	I196 : dAve : 	(0.0190255017326 0.0284736755306 -0.0327249234749) : omega : 	0.0479126133149 : d : 	(0.392847479194 0.58793780121 -0.707106781187)
	I197 : dAve : 	(0.0225792963734 0.025746752993 -0.0327249234749) : omega : 	0.0479126133149 : d : 	(0.466227897004 0.531631026234 -0.707106781187)
	I198 : dAve : 	(0.025746752993 0.0225792963734 -0.0327249234749) : omega : 	0.0479126133149 : d : 	(0.531631026234 0.466227897004 -0.707106781187)
	I199 : dAve : 	(0.0284736755306 0.0190255017326 -0.0327249234749) : omega : 	0.0479126133149 : d : 	(0.58793780121 0.392847479194 -0.707106781187)
	I200 : dAve : 	(0.0307134055855 0.0151461754823 -0.0327249234749) : omega : 	0.0479126133149 : d : 	(0.634184797399 0.312745332096 -0.707106781187)
	I201 : dAve : 	(0.0324276207555 0.0110076939702 -0.0327249234749) : omega : 	0.0479126133149 : d : 	(0.669580715876 0.227292025657 -0.707106781187)
	I202 : dAve : 	(0.0335869903436 0.00668086776241 -0.0327249234749) : omega : 	0.0479126133149 : d : 	(0.693519922661 0.137949689641 -0.707106781187)
	I203 : dAve : 	(0.034171677215 0.00223973005487 -0.0327249234749) : omega : 	0.0479126133149 : d : 	(0.70559281129 0.0462469961895 -0.707106781187)
	I204 : dAve : 	(0.034171677215 -0.00223973005487 -0.0327249234749) : omega : 	0.0479126133149 : d : 	(0.70559281129 -0.0462469961895 -0.707106781187)
	I205 : dAve : 	(0.0335869903436 -0.00668086776241 -0.0327249234749) : omega : 	0.0479126133149 : d : 	(0.693519922661 -0.137949689641 -0.707106781187)
	I206 : dAve : 	(0.0324276207555 -0.0110076939702 -0.0327249234749) : omega : 	0.0479126133149 : d : 	(0.669580715876 -0.227292025657 -0.707106781187)
	I207 : dAve : 	(0.0307134055855 -0.0151461754823 -0.0327249234749) : omega : 	0.0479126133149 : d : 	(0.634184797399 -0.312745332096 -0.707106781187)
	I208 : dAve : 	(0.0284736755306 -0.0190255017326 -0.0327249234749) : omega : 	0.0479126133149 : d : 	(0.58793780121 -0.392847479194 -0.707106781187)
	I209 : dAve : 	(0.025746752993 -0.0225792963734 -0.0327249234749) : omega : 	0.0479126133149 : d : 	(0.531631026234 -0.466227897004 -0.707106781187)
	I210 : dAve : 	(0.0225792963734 -0.025746752993 -0.0327249234749) : omega : 	0.0479126133149 : d : 	(0.466227897004 -0.531631026234 -0.707106781187)
	I211 : dAve : 	(0.0190255017326 -0.0284736755306 -0.0327249234749) : omega : 	0.0479126133149 : d : 	(0.392847479194 -0.58793780121 -0.707106781187)
	I212 : dAve : 	(0.0151461754823 -0.0307134055855 -0.0327249234749) : omega : 	0.0479126133149 : d : 	(0.312745332096 -0.634184797399 -0.707106781187)
	I213 : dAve : 	(0.0110076939702 -0.0324276207555 -0.0327249234749) : omega : 	0.0479126133149 : d : 	(0.227292025657 -0.669580715876 -0.707106781187)
	I214 : dAve : 	(0.00668086776241 -0.0335869903436 -0.0327249234749) : omega : 	0.0479126133149 : d : 	(0.137949689641 -0.693519922661 -0.707106781187)
	I215 : dAve : 	(0.00223973005487 -0.034171677215 -0.0327249234749) : omega : 	0.0479126133149 : d : 	(0.0462469961895 -0.70559281129 -0.707106781187)
	I216 : dAve : 	(-0.00223973005487 -0.034171677215 -0.0327249234749) : omega : 	0.0479126133149 : d : 	(-0.0462469961895 -0.70559281129 -0.707106781187)
	I217 : dAve : 	(-0.00668086776241 -0.0335869903436 -0.0327249234749) : omega : 	0.0479126133149 : d : 	(-0.137949689641 -0.693519922661 -0.707106781187)
	I218 : dAve : 	(-0.0110076939702 -0.0324276207555 -0.0327249234749) : omega : 	0.0479126133149 : d : 	(-0.227292025657 -0.669580715876 -0.707106781187)
	I219 : dAve : 	(-0.0151461754823 -0.0307134055855 -0.0327249234749) : omega : 	0.0479126133149 : d : 	(-0.312745332096 -0.634184797399 -0.707106781187)
	I220 : dAve : 	(-0.0190255017326 -0.0284736755306 -0.0327249234749) : omega : 	0.0479126133149 : d : 	(-0.392847479194 -0.58793780121 -0.707106781187)
	I221 : dAve : 	(-0.0225792963734 -0.025746752993 -0.0327249234749) : omega : 	0.0479126133149 : d : 	(-0.466227897004 -0.531631026234 -0.707106781187)
	I222 : dAve : 	(-0.025746752993 -0.0225792963734 -0.0327249234749) : omega : 	0.0479126133149 : d : 	(-0.531631026234 -0.466227897004 -0.707106781187)
	I223 : dAve : 	(-0.0284736755306 -0.0190255017326 -0.0327249234749) : omega : 	0.0479126133149 : d : 	(-0.58793780121 -0.392847479194 -0.707106781187)
	I224 : dAve : 	(-0.0307134055855 -0.0151461754823 -0.0327249234749) : omega : 	0.0479126133149 : d : 	(-0.634184797399 -0.312745332096 -0.707106781187)
	I225 : dAve : 	(-0.0324276207555 -0.0110076939702 -0.0327249234749) : omega : 	0.0479126133149 : d : 	(-0.669580715876 -0.227292025657 -0.707106781187)
	I226 : dAve : 	(-0.0335869903436 -0.00668086776241 -0.0327249234749) : omega : 	0.0479126133149 : d : 	(-0.693519922661 -0.137949689641 -0.707106781187)
	I227 : dAve : 	(-0.034171677215 -0.00223973005487 -0.0327249234749) : omega : 	0.0479126133149 : d : 	(-0.70559281129 -0.0462469961895 -0.707106781187)
	I228 : dAve : 	(-0.034171677215 0.00223973005487 -0.0327249234749) : omega : 	0.0479126133149 : d : 	(-0.70559281129 0.0462469961895 -0.707106781187)
	I229 : dAve : 	(-0.0335869903436 0.00668086776241 -0.0327249234749) : omega : 	0.0479126133149 : d : 	(-0.693519922661 0.137949689641 -0.707106781187)
	I230 : dAve : 	(-0.0324276207555 0.0110076939702 -0.0327249234749) : omega : 	0.0479126133149 : d : 	(-0.669580715876 0.227292025657 -0.707106781187)
	I231 : dAve : 	(-0.0307134055855 0.0151461754823 -0.0327249234749) : omega : 	0.0479126133149 : d : 	(-0.634184797399 0.312745332096 -0.707106781187)
	I232 : dAve : 	(-0.0284736755306 0.0190255017326 -0.0327249234749) : omega : 	0.0479126133149 : d : 	(-0.58793780121 0.392847479194 -0.707106781187)
	I233 : dAve : 	(-0.025746752993 0.0225792963734 -0.0327249234749) : omega : 	0.0479126133149 : d : 	(-0.531631026234 0.466227897004 -0.707106781187)
	I234 : dAve : 	(-0.0225792963734 0.025746752993 -0.0327249234749) : omega : 	0.0479126133149 : d : 	(-0.466227897004 0.531631026234 -0.707106781187)
	I235 : dAve : 	(-0.0190255017326 0.0284736755306 -0.0327249234749) : omega : 	0.0479126133149 : d : 	(-0.392847479194 0.58793780121 -0.707106781187)
	I236 : dAve : 	(-0.0151461754823 0.0307134055855 -0.0327249234749) : omega : 	0.0479126133149 : d : 	(-0.312745332096 0.634184797399 -0.707106781187)
	I237 : dAve : 	(-0.0110076939702 0.0324276207555 -0.0327249234749) : omega : 	0.0479126133149 : d : 	(-0.227292025657 0.669580715876 -0.707106781187)
	I238 : dAve : 	(-0.00668086776241 0.0335869903436 -0.0327249234749) : omega : 	0.0479126133149 : d : 	(-0.137949689641 0.693519922661 -0.707106781187)
	I239 : dAve : 	(-0.00223973005487 0.034171677215 -0.0327249234749) : omega : 	0.0479126133149 : d : 	(-0.0462469961895 0.70559281129 -0.707106781187)
	I240 : dAve : 	(0.000387488209079 0.00591192763451 -0.0163624617374) : omega : 	0.0175372336349 : d : 	(0.0169275754541 0.25826489366 -0.965925826289)
	I241 : dAve : 	(0.00115583459655 0.00581077291359 -0.0163624617374) : omega : 	0.0175372336349 : d : 	(0.050493090853 0.253845909725 -0.965925826289)
	I242 : dAve : 	(0.00190440433361 0.00561019425706 -0.0163624617374) : omega : 	0.0175372336349 : d : 	(0.083194655468 0.245083551895 -0.965925826289)
	I243 : dAve : 	(0.00262038918453 0.00531362362136 -0.0163624617374) : omega : 	0.0175372336349 : d : 	(0.114472736462 0.232127746542 -0.965925826289)
	I244 : dAve : 	(0.00329153844998 0.00492613541228 -0.0163624617374) : omega : 	0.0175372336349 : d : 	(0.143792157198 0.215200171088 -0.965925826289)
	I245 : dAve : 	(0.00390636857998 0.00445435966052 -0.0163624617374) : omega : 	0.0175372336349 : d : 	(0.170651254257 0.194590461042 -0.965925826289)
	I246 : dAve : 	(0.00445435966052 0.00390636857998 -0.0163624617374) : omega : 	0.0175372336349 : d : 	(0.194590461042 0.170651254257 -0.965925826289)
	I247 : dAve : 	(0.00492613541228 0.00329153844998 -0.0163624617374) : omega : 	0.0175372336349 : d : 	(0.215200171088 0.143792157198 -0.965925826289)
	I248 : dAve : 	(0.00531362362136 0.00262038918453 -0.0163624617374) : omega : 	0.0175372336349 : d : 	(0.232127746542 0.114472736462 -0.965925826289)
	I249 : dAve : 	(0.00561019425706 0.00190440433361 -0.0163624617374) : omega : 	0.0175372336349 : d : 	(0.245083551895 0.083194655468 -0.965925826289)
	I250 : dAve : 	(0.00581077291359 0.00115583459655 -0.0163624617374) : omega : 	0.0175372336349 : d : 	(0.253845909725 0.050493090853 -0.965925826289)
	I251 : dAve : 	(0.00591192763451 0.000387488209079 -0.0163624617374) : omega : 	0.0175372336349 : d : 	(0.25826489366 0.0169275754541 -0.965925826289)
	I252 : dAve : 	(0.00591192763451 -0.000387488209079 -0.0163624617374) : omega : 	0.0175372336349 : d : 	(0.25826489366 -0.0169275754541 -0.965925826289)
	I253 : dAve : 	(0.00581077291359 -0.00115583459655 -0.0163624617374) : omega : 	0.0175372336349 : d : 	(0.253845909725 -0.050493090853 -0.965925826289)
	I254 : dAve : 	(0.00561019425706 -0.00190440433361 -0.0163624617374) : omega : 	0.0175372336349 : d : 	(0.245083551895 -0.083194655468 -0.965925826289)
	I255 : dAve : 	(0.00531362362136 -0.00262038918453 -0.0163624617374) : omega : 	0.0175372336349 : d : 	(0.232127746542 -0.114472736462 -0.965925826289)
	I256 : dAve : 	(0.00492613541228 -0.00329153844998 -0.0163624617374) : omega : 	0.0175372336349 : d : 	(0.215200171088 -0.143792157198 -0.965925826289)
	I257 : dAve : 	(0.00445435966052 -0.00390636857998 -0.0163624617374) : omega : 	0.0175372336349 : d : 	(0.194590461042 -0.170651254257 -0.965925826289)
	I258 : dAve : 	(0.00390636857998 -0.00445435966052 -0.0163624617374) : omega : 	0.0175372336349 : d : 	(0.170651254257 -0.194590461042 -0.965925826289)
	I259 : dAve : 	(0.00329153844998 -0.00492613541228 -0.0163624617374) : omega : 	0.0175372336349 : d : 	(0.143792157198 -0.215200171088 -0.965925826289)
	I260 : dAve : 	(0.00262038918453 -0.00531362362136 -0.0163624617374) : omega : 	0.0175372336349 : d : 	(0.114472736462 -0.232127746542 -0.965925826289)
	I261 : dAve : 	(0.00190440433361 -0.00561019425706 -0.0163624617374) : omega : 	0.0175372336349 : d : 	(0.083194655468 -0.245083551895 -0.965925826289)
	I262 : dAve : 	(0.00115583459655 -0.00581077291359 -0.0163624617374) : omega : 	0.0175372336349 : d : 	(0.050493090853 -0.253845909725 -0.965925826289)
	I263 : dAve : 	(0.000387488209079 -0.00591192763451 -0.0163624617374) : omega : 	0.0175372336349 : d : 	(0.0169275754541 -0.25826489366 -0.965925826289)
	I264 : dAve : 	(-0.000387488209079 -0.00591192763451 -0.0163624617374) : omega : 	0.0175372336349 : d : 	(-0.0169275754541 -0.25826489366 -0.965925826289)
	I265 : dAve : 	(-0.00115583459655 -0.00581077291359 -0.0163624617374) : omega : 	0.0175372336349 : d : 	(-0.050493090853 -0.253845909725 -0.965925826289)
	I266 : dAve : 	(-0.00190440433361 -0.00561019425706 -0.0163624617374) : omega : 	0.0175372336349 : d : 	(-0.083194655468 -0.245083551895 -0.965925826289)
	I267 : dAve : 	(-0.00262038918453 -0.00531362362136 -0.0163624617374) : omega : 	0.0175372336349 : d : 	(-0.114472736462 -0.232127746542 -0.965925826289)
	I268 : dAve : 	(-0.00329153844998 -0.00492613541228 -0.0163624617374) : omega : 	0.0175372336349 : d : 	(-0.143792157198 -0.215200171088 -0.965925826289)
	I269 : dAve : 	(-0.00390636857998 -0.00445435966052 -0.0163624617374) : omega : 	0.0175372336349 : d : 	(-0.170651254257 -0.194590461042 -0.965925826289)
	I270 : dAve : 	(-0.00445435966052 -0.00390636857998 -0.0163624617374) : omega : 	0.0175372336349 : d : 	(-0.194590461042 -0.170651254257 -0.965925826289)
	I271 : dAve : 	(-0.00492613541228 -0.00329153844998 -0.0163624617374) : omega : 	0.0175372336349 : d : 	(-0.215200171088 -0.143792157198 -0.965925826289)
	I272 : dAve : 	(-0.00531362362136 -0.00262038918453 -0.0163624617374) : omega : 	0.0175372336349 : d : 	(-0.232127746542 -0.114472736462 -0.965925826289)
	I273 : dAve : 	(-0.00561019425706 -0.00190440433361 -0.0163624617374) : omega : 	0.0175372336349 : d : 	(-0.245083551895 -0.083194655468 -0.965925826289)
	I274 : dAve : 	(-0.00581077291359 -0.00115583459655 -0.0163624617374) : omega : 	0.0175372336349 : d : 	(-0.253845909725 -0.050493090853 -0.965925826289)
	I275 : dAve : 	(-0.00591192763451 -0.000387488209079 -0.0163624617374) : omega : 	0.0175372336349 : d : 	(-0.25826489366 -0.0169275754541 -0.965925826289)
	I276 : dAve : 	(-0.00591192763451 0.000387488209079 -0.0163624617374) : omega : 	0.0175372336349 : d : 	(-0.25826489366 0.0169275754541 -0.965925826289)
	I277 : dAve : 	(-0.00581077291359 0.00115583459655 -0.0163624617374) : omega : 	0.0175372336349 : d : 	(-0.253845909725 0.050493090853 -0.965925826289)
	I278 : dAve : 	(-0.00561019425706 0.00190440433361 -0.0163624617374) : omega : 	0.0175372336349 : d : 	(-0.245083551895 0.083194655468 -0.965925826289)
	I279 : dAve : 	(-0.00531362362136 0.00262038918453 -0.0163624617374) : omega : 	0.0175372336349 : d : 	(-0.232127746542 0.114472736462 -0.965925826289)
	I280 : dAve : 	(-0.00492613541228 0.00329153844998 -0.0163624617374) : omega : 	0.0175372336349 : d : 	(-0.215200171088 0.143792157198 -0.965925826289)
	I281 : dAve : 	(-0.00445435966052 0.00390636857998 -0.0163624617374) : omega : 	0.0175372336349 : d : 	(-0.194590461042 0.170651254257 -0.965925826289)
	I282 : dAve : 	(-0.00390636857998 0.00445435966052 -0.0163624617374) : omega : 	0.0175372336349 : d : 	(-0.170651254257 0.194590461042 -0.965925826289)
	I283 : dAve : 	(-0.00329153844998 0.00492613541228 -0.0163624617374) : omega : 	0.0175372336349 : d : 	(-0.143792157198 0.215200171088 -0.965925826289)
	I284 : dAve : 	(-0.00262038918453 0.00531362362136 -0.0163624617374) : omega : 	0.0175372336349 : d : 	(-0.114472736462 0.232127746542 -0.965925826289)
	I285 : dAve : 	(-0.00190440433361 0.00561019425706 -0.0163624617374) : omega : 	0.0175372336349 : d : 	(-0.083194655468 0.245083551895 -0.965925826289)
	I286 : dAve : 	(-0.00115583459655 0.00581077291359 -0.0163624617374) : omega : 	0.0175372336349 : d : 	(-0.050493090853 0.253845909725 -0.965925826289)
	I287 : dAve : 	(-0.000387488209079 0.00591192763451 -0.0163624617374) : omega : 	0.0175372336349 : d : 	(-0.0169275754541 0.25826489366 -0.965925826289)
Total omega : 12.5663706144

Courant Number mean: 0 max: 0

Starting time loop

Sampled set:
    data -> csv

Sampled set:
    data -> csv

Sampled surface:
    yNormal -> ensight
        sampledCuttingPlane: yNormal : plane:(0 1 0) (0 0 0) offsets:(0)

Sampled surface:
    zNormal -> ensight
        sampledCuttingPlane: zNormal : plane:(0 0 1) (0 0 0) offsets:(0)

Sampled surface:
    patchAll -> ensight
        sampledPatch: patchAll : patches:(".*WW.*")

deltaT = 1
Time = 1

PIMPLE: iteration 1
Radiation solver iter: 0
DILUPBiCGStab:  Solving for ILambda_0_0, Initial residual = 1, Final residual = 5.26705406123e-64, No Iterations 2
DILUPBiCGStab:  Solving for ILambda_1_0, Initial residual = 1, Final residual = 5.58304726436e-64, No Iterations 2
DILUPBiCGStab:  Solving for ILambda_2_0, Initial residual = 1, Final residual = 5.76256438617e-64, No Iterations 2
DILUPBiCGStab:  Solving for ILambda_3_0, Initial residual = 1, Final residual = 5.41251156626e-64, No Iterations 2
DILUPBiCGStab:  Solving for ILambda_4_0, Initial residual = 1, Final residual = 5.51281462215e-64, No Iterations 2
DILUPBiCGStab:  Solving for ILambda_5_0, Initial residual = 1, Final residual = 6.70396007819e-64, No Iterations 2
DILUPBiCGStab:  Solving for ILambda_6_0, Initial residual = 1, Final residual = 6.70609379513e-64, No Iterations 2
DILUPBiCGStab:  Solving for ILambda_7_0, Initial residual = 1, Final residual = 5.40629968132e-64, No Iterations 2
DILUPBiCGStab:  Solving for ILambda_8_0, Initial residual = 1, Final residual = 5.06321825612e-64, No Iterations 2
DILUPBiCGStab:  Solving for ILambda_9_0, Initial residual = 1, Final residual = 4.72049973095e-64, No Iterations 2
DILUPBiCGStab:  Solving for ILambda_10_0, Initial residual = 1, Final residual = 6.35469899551e-64, No Iterations 2
DILUPBiCGStab:  Solving for ILambda_11_0, Initial residual = 1, Final residual = 4.43558146904e-64, No Iterations 2
DILUPBiCGStab:  Solving for ILambda_12_0, Initial residual = 1, Final residual = 2.67020116549e-61, No Iterations 15
DILUPBiCGStab:  Solving for ILambda_13_0, Initial residual = 1, Final residual = 5.53474144198e-62, No Iterations 19
DILUPBiCGStab:  Solving for ILambda_14_0, Initial residual = 1, Final residual = 1.87189039349e-61, No Iterations 21
DILUPBiCGStab:  Solving for ILambda_15_0, Initial residual = 1, Final residual = 1.83888118768e-61, No Iterations 22
DILUPBiCGStab:  Solving for ILambda_16_0, Initial residual = 1, Final residual = 2.42850694699e-61, No Iterations 23
DILUPBiCGStab:  Solving for ILambda_17_0, Initial residual = 1, Final residual = 4.49600289103e-61, No Iterations 24
DILUPBiCGStab:  Solving for ILambda_18_0, Initial residual = 1, Final residual = 3.4430087038e-61, No Iterations 24
DILUPBiCGStab:  Solving for ILambda_19_0, Initial residual = 1, Final residual = 3.00730488808e-64, No Iterations 25
DILUPBiCGStab:  Solving for ILambda_20_0, Initial residual = 1, Final residual = 9.30056809798e-62, No Iterations 23
DILUPBiCGStab:  Solving for ILambda_21_0, Initial residual = 1, Final residual = 1.49766087506e-61, No Iterations 22
DILUPBiCGStab:  Solving for ILambda_22_0, Initial residual = 1, Final residual = 9.92008104377e-61, No Iterations 21
DILUPBiCGStab:  Solving for ILambda_23_0, Initial residual = 1, Final residual = 4.2675767903e-61, No Iterations 19
DILUPBiCGStab:  Solving for ILambda_24_0, Initial residual = 1, Final residual = 7.37292666357e-61, No Iterations 19
DILUPBiCGStab:  Solving for ILambda_25_0, Initial residual = 1, Final residual = 1.73329348023e-62, No Iterations 20
DILUPBiCGStab:  Solving for ILambda_26_0, Initial residual = 1, Final residual = 6.78543763037e-61, No Iterations 20
DILUPBiCGStab:  Solving for ILambda_27_0, Initial residual = 1, Final residual = 7.18300384701e-62, No Iterations 21
DILUPBiCGStab:  Solving for ILambda_28_0, Initial residual = 1, Final residual = 5.90622283236e-61, No Iterations 20
DILUPBiCGStab:  Solving for ILambda_29_0, Initial residual = 1, Final residual = 5.94758431324e-62, No Iterations 20
DILUPBiCGStab:  Solving for ILambda_30_0, Initial residual = 1, Final residual = 1.67693800902e-62, No Iterations 20
DILUPBiCGStab:  Solving for ILambda_31_0, Initial residual = 1, Final residual = 2.39002533775e-62, No Iterations 20
DILUPBiCGStab:  Solving for ILambda_32_0, Initial residual = 1, Final residual = 2.65989283763e-62, No Iterations 21
DILUPBiCGStab:  Solving for ILambda_33_0, Initial residual = 1, Final residual = 9.76950684722e-61, No Iterations 20
DILUPBiCGStab:  Solving for ILambda_34_0, Initial residual = 1, Final residual = 9.8030273149e-61, No Iterations 20
DILUPBiCGStab:  Solving for ILambda_35_0, Initial residual = 1, Final residual = 1.10525174691e-61, No Iterations 19
DILUPBiCGStab:  Solving for ILambda_36_0, Initial residual = 1, Final residual = 7.62003454899e-61, No Iterations 19
DILUPBiCGStab:  Solving for ILambda_37_0, Initial residual = 1, Final residual = 4.7622996552e-61, No Iterations 21
DILUPBiCGStab:  Solving for ILambda_38_0, Initial residual = 1, Final residual = 1.55436956769e-61, No Iterations 22
DILUPBiCGStab:  Solving for ILambda_39_0, Initial residual = 1, Final residual = 6.19152528454e-62, No Iterations 23
DILUPBiCGStab:  Solving for ILambda_40_0, Initial residual = 1, Final residual = 2.57287815723e-61, No Iterations 24
DILUPBiCGStab:  Solving for ILambda_41_0, Initial residual = 1, Final residual = 5.45313722356e-62, No Iterations 24
DILUPBiCGStab:  Solving for ILambda_42_0, Initial residual = 1, Final residual = 1.36876746374e-61, No Iterations 24
DILUPBiCGStab:  Solving for ILambda_43_0, Initial residual = 1, Final residual = 1.06224066207e-61, No Iterations 23
DILUPBiCGStab:  Solving for ILambda_44_0, Initial residual = 1, Final residual = 1.5460015696e-61, No Iterations 22
DILUPBiCGStab:  Solving for ILambda_45_0, Initial residual = 1, Final residual = 1.93224421106e-61, No Iterations 21
DILUPBiCGStab:  Solving for ILambda_46_0, Initial residual = 1, Final residual = 6.12030074496e-62, No Iterations 19
DILUPBiCGStab:  Solving for ILambda_47_0, Initial residual = 1, Final residual = 2.62724849324e-61, No Iterations 15
DILUPBiCGStab:  Solving for ILambda_48_0, Initial residual = 1, Final residual = 1.01794514206e-63, No Iterations 2
DILUPBiCGStab:  Solving for ILambda_49_0, Initial residual = 1, Final residual = 1.03613934527e-63, No Iterations 2
DILUPBiCGStab:  Solving for ILambda_50_0, Initial residual = 1, Final residual = 5.41855844447e-64, No Iterations 2
DILUPBiCGStab:  Solving for ILambda_51_0, Initial residual = 1, Final residual = 9.83880574102e-64, No Iterations 2
DILUPBiCGStab:  Solving for ILambda_52_0, Initial residual = 1, Final residual = 1.10422455192e-63, No Iterations 2
DILUPBiCGStab:  Solving for ILambda_53_0, Initial residual = 1, Final residual = 5.16082468125e-64, No Iterations 2
DILUPBiCGStab:  Solving for ILambda_54_0, Initial residual = 1, Final residual = 5.0383069547e-64, No Iterations 2
DILUPBiCGStab:  Solving for ILambda_55_0, Initial residual = 1, Final residual = 9.21969426438e-64, No Iterations 2
DILUPBiCGStab:  Solving for ILambda_56_0, Initial residual = 1, Final residual = 5.36677756547e-64, No Iterations 2
DILUPBiCGStab:  Solving for ILambda_57_0, Initial residual = 1, Final residual = 9.79020227995e-64, No Iterations 2
DILUPBiCGStab:  Solving for ILambda_58_0, Initial residual = 1, Final residual = 4.66317621426e-64, No Iterations 2
DILUPBiCGStab:  Solving for ILambda_59_0, Initial residual = 1, Final residual = 8.58082507925e-64, No Iterations 2
DILUPBiCGStab:  Solving for ILambda_60_0, Initial residual = 1, Final residual = 5.49706149064e-62, No Iterations 19
DILUPBiCGStab:  Solving for ILambda_61_0, Initial residual = 1, Final residual = 8.97533327363e-61, No Iterations 26
DILUPBiCGStab:  Solving for ILambda_62_0, Initial residual = 1, Final residual = 9.29349948927e-61, No Iterations 30
DILUPBiCGStab:  Solving for ILambda_63_0, Initial residual = 1, Final residual = 6.91435119773e-61, No Iterations 33
DILUPBiCGStab:  Solving for ILambda_64_0, Initial residual = 1, Final residual = 5.41486072093e-61, No Iterations 35
DILUPBiCGStab:  Solving for ILambda_65_0, Initial residual = 1, Final residual = 1.62533364012e-61, No Iterations 37
DILUPBiCGStab:  Solving for ILambda_66_0, Initial residual = 1, Final residual = 2.04216623175e-61, No Iterations 36
DILUPBiCGStab:  Solving for ILambda_67_0, Initial residual = 1, Final residual = 9.13824647687e-61, No Iterations 35
DILUPBiCGStab:  Solving for ILambda_68_0, Initial residual = 1, Final residual = 5.55850935619e-61, No Iterations 33
DILUPBiCGStab:  Solving for ILambda_69_0, Initial residual = 1, Final residual = 2.97884705339e-61, No Iterations 31
DILUPBiCGStab:  Solving for ILambda_70_0, Initial residual = 1, Final residual = 8.23061582678e-61, No Iterations 27
DILUPBiCGStab:  Solving for ILambda_71_0, Initial residual = 1, Final residual = 3.1462608575e-62, No Iterations 22
DILUPBiCGStab:  Solving for ILambda_72_0, Initial residual = 1, Final residual = 8.26025139653e-61, No Iterations 21
DILUPBiCGStab:  Solving for ILambda_73_0, Initial residual = 1, Final residual = 9.22133285125e-62, No Iterations 22
DILUPBiCGStab:  Solving for ILambda_74_0, Initial residual = 1, Final residual = 5.14100190595e-62, No Iterations 22
DILUPBiCGStab:  Solving for ILambda_75_0, Initial residual = 1, Final residual = 1.5250190118e-62, No Iterations 22
DILUPBiCGStab:  Solving for ILambda_76_0, Initial residual = 1, Final residual = 3.16297982478e-61, No Iterations 22
DILUPBiCGStab:  Solving for ILambda_77_0, Initial residual = 1, Final residual = 3.37090244874e-62, No Iterations 23
DILUPBiCGStab:  Solving for ILambda_78_0, Initial residual = 1, Final residual = 9.46299721261e-61, No Iterations 23
DILUPBiCGStab:  Solving for ILambda_79_0, Initial residual = 1, Final residual = 3.2713445725e-62, No Iterations 23
DILUPBiCGStab:  Solving for ILambda_80_0, Initial residual = 1, Final residual = 5.30288124454e-62, No Iterations 22
DILUPBiCGStab:  Solving for ILambda_81_0, Initial residual = 1, Final residual = 4.29214749531e-62, No Iterations 22
DILUPBiCGStab:  Solving for ILambda_82_0, Initial residual = 1, Final residual = 4.87226637039e-61, No Iterations 21
DILUPBiCGStab:  Solving for ILambda_83_0, Initial residual = 1, Final residual = 1.17081291894e-61, No Iterations 22
DILUPBiCGStab:  Solving for ILambda_84_0, Initial residual = 1, Final residual = 1.18009253589e-61, No Iterations 22
DILUPBiCGStab:  Solving for ILambda_85_0, Initial residual = 1, Final residual = 3.5799788958e-61, No Iterations 27
DILUPBiCGStab:  Solving for ILambda_86_0, Initial residual = 1, Final residual = 2.82006959338e-61, No Iterations 31
DILUPBiCGStab:  Solving for ILambda_87_0, Initial residual = 1, Final residual = 1.04315969594e-61, No Iterations 34
DILUPBiCGStab:  Solving for ILambda_88_0, Initial residual = 1, Final residual = 1.15899856766e-61, No Iterations 35
DILUPBiCGStab:  Solving for ILambda_89_0, Initial residual = 1, Final residual = 2.88519900954e-62, No Iterations 37
DILUPBiCGStab:  Solving for ILambda_90_0, Initial residual = 1, Final residual = 4.72566377771e-61, No Iterations 36
DILUPBiCGStab:  Solving for ILambda_91_0, Initial residual = 1, Final residual = 2.01470551245e-61, No Iterations 35
DILUPBiCGStab:  Solving for ILambda_92_0, Initial residual = 1, Final residual = 5.46331557983e-61, No Iterations 33
DILUPBiCGStab:  Solving for ILambda_93_0, Initial residual = 1, Final residual = 1.76841578196e-61, No Iterations 30
DILUPBiCGStab:  Solving for ILambda_94_0, Initial residual = 1, Final residual = 3.49959366697e-61, No Iterations 26
DILUPBiCGStab:  Solving for ILambda_95_0, Initial residual = 1, Final residual = 5.65847637128e-62, No Iterations 19
DILUPBiCGStab:  Solving for ILambda_96_0, Initial residual = 1, Final residual = 8.84519252819e-64, No Iterations 2
DILUPBiCGStab:  Solving for ILambda_97_0, Initial residual = 1, Final residual = 5.63096949445e-64, No Iterations 2
DILUPBiCGStab:  Solving for ILambda_98_0, Initial residual = 1, Final residual = 5.79427114588e-64, No Iterations 2
DILUPBiCGStab:  Solving for ILambda_99_0, Initial residual = 1, Final residual = 1.03764422126e-63, No Iterations 2
DILUPBiCGStab:  Solving for ILambda_100_0, Initial residual = 1, Final residual = 6.77873619064e-64, No Iterations 2
DILUPBiCGStab:  Solving for ILambda_101_0, Initial residual = 1, Final residual = 1.03418615027e-63, No Iterations 2
DILUPBiCGStab:  Solving for ILambda_102_0, Initial residual = 1, Final residual = 6.90239838189e-64, No Iterations 2
DILUPBiCGStab:  Solving for ILambda_103_0, Initial residual = 1, Final residual = 5.94215937054e-64, No Iterations 2
DILUPBiCGStab:  Solving for ILambda_104_0, Initial residual = 1, Final residual = 5.79001035125e-64, No Iterations 2
DILUPBiCGStab:  Solving for ILambda_105_0, Initial residual = 1, Final residual = 5.17158229589e-64, No Iterations 2
DILUPBiCGStab:  Solving for ILambda_106_0, Initial residual = 1, Final residual = 4.79501157817e-64, No Iterations 2
DILUPBiCGStab:  Solving for ILambda_107_0, Initial residual = 1, Final residual = 4.70247588183e-64, No Iterations 2
DILUPBiCGStab:  Solving for ILambda_108_0, Initial residual = 1, Final residual = 3.62725906402e-62, No Iterations 22
DILUPBiCGStab:  Solving for ILambda_109_0, Initial residual = 1, Final residual = 1.6707451955e-61, No Iterations 30
DILUPBiCGStab:  Solving for ILambda_110_0, Initial residual = 1, Final residual = 4.53398533757e-61, No Iterations 35
DILUPBiCGStab:  Solving for ILambda_111_0, Initial residual = 1, Final residual = 8.51160734282e-62, No Iterations 39
DILUPBiCGStab:  Solving for ILambda_112_0, Initial residual = 1, Final residual = 3.25099213019e-61, No Iterations 42
DILUPBiCGStab:  Solving for ILambda_113_0, Initial residual = 1, Final residual = 4.88510123606e-61, No Iterations 44
DILUPBiCGStab:  Solving for ILambda_114_0, Initial residual = 1, Final residual = 4.07059644687e-61, No Iterations 43
DILUPBiCGStab:  Solving for ILambda_115_0, Initial residual = 1, Final residual = 5.3626786707e-61, No Iterations 42
DILUPBiCGStab:  Solving for ILambda_116_0, Initial residual = 1, Final residual = 1.63217977085e-61, No Iterations 39
DILUPBiCGStab:  Solving for ILambda_117_0, Initial residual = 1, Final residual = 4.90309988436e-61, No Iterations 36
DILUPBiCGStab:  Solving for ILambda_118_0, Initial residual = 1, Final residual = 7.19110586646e-61, No Iterations 31
DILUPBiCGStab:  Solving for ILambda_119_0, Initial residual = 1, Final residual = 5.09877312799e-61, No Iterations 25
DILUPBiCGStab:  Solving for ILambda_120_0, Initial residual = 1, Final residual = 3.07843625882e-61, No Iterations 19
DILUPBiCGStab:  Solving for ILambda_121_0, Initial residual = 1, Final residual = 9.15196204987e-62, No Iterations 21
DILUPBiCGStab:  Solving for ILambda_122_0, Initial residual = 1, Final residual = 4.31946033949e-62, No Iterations 21
DILUPBiCGStab:  Solving for ILambda_123_0, Initial residual = 1, Final residual = 2.50223221747e-62, No Iterations 21
DILUPBiCGStab:  Solving for ILambda_124_0, Initial residual = 1, Final residual = 2.8321558436e-61, No Iterations 21
DILUPBiCGStab:  Solving for ILambda_125_0, Initial residual = 1, Final residual = 2.48366150928e-62, No Iterations 21
DILUPBiCGStab:  Solving for ILambda_126_0, Initial residual = 1, Final residual = 6.05197023027e-61, No Iterations 21
DILUPBiCGStab:  Solving for ILambda_127_0, Initial residual = 1, Final residual = 3.30177354992e-62, No Iterations 21
DILUPBiCGStab:  Solving for ILambda_128_0, Initial residual = 1, Final residual = 1.60621825241e-62, No Iterations 21
DILUPBiCGStab:  Solving for ILambda_129_0, Initial residual = 1, Final residual = 4.86848711004e-62, No Iterations 21
DILUPBiCGStab:  Solving for ILambda_130_0, Initial residual = 1, Final residual = 3.51414524574e-61, No Iterations 21
DILUPBiCGStab:  Solving for ILambda_131_0, Initial residual = 1, Final residual = 1.35788818132e-61, No Iterations 20
DILUPBiCGStab:  Solving for ILambda_132_0, Initial residual = 1, Final residual = 3.04237983268e-61, No Iterations 25
DILUPBiCGStab:  Solving for ILambda_133_0, Initial residual = 1, Final residual = 1.39629739779e-61, No Iterations 32
DILUPBiCGStab:  Solving for ILambda_134_0, Initial residual = 1, Final residual = 3.46496988973e-63, No Iterations 37
DILUPBiCGStab:  Solving for ILambda_135_0, Initial residual = 1, Final residual = 4.72755728344e-61, No Iterations 39
DILUPBiCGStab:  Solving for ILambda_136_0, Initial residual = 1, Final residual = 5.86654293606e-62, No Iterations 42
DILUPBiCGStab:  Solving for ILambda_137_0, Initial residual = 1, Final residual = 2.98198723095e-61, No Iterations 43
DILUPBiCGStab:  Solving for ILambda_138_0, Initial residual = 1, Final residual = 4.28398465392e-61, No Iterations 44
DILUPBiCGStab:  Solving for ILambda_139_0, Initial residual = 1, Final residual = 1.86731595747e-61, No Iterations 42
DILUPBiCGStab:  Solving for ILambda_140_0, Initial residual = 1, Final residual = 4.38383844588e-61, No Iterations 39
DILUPBiCGStab:  Solving for ILambda_141_0, Initial residual = 1, Final residual = 3.52007080341e-61, No Iterations 35
DILUPBiCGStab:  Solving for ILambda_142_0, Initial residual = 1, Final residual = 1.16754473578e-61, No Iterations 30
DILUPBiCGStab:  Solving for ILambda_143_0, Initial residual = 1, Final residual = 7.17694567554e-61, No Iterations 21
DILUPBiCGStab:  Solving for ILambda_144_0, Initial residual = 1, Final residual = 9.93151289503e-61, No Iterations 20
DILUPBiCGStab:  Solving for ILambda_145_0, Initial residual = 1, Final residual = 2.4684662918e-61, No Iterations 20
DILUPBiCGStab:  Solving for ILambda_146_0, Initial residual = 1, Final residual = 7.36258813891e-61, No Iterations 20
DILUPBiCGStab:  Solving for ILambda_147_0, Initial residual = 1, Final residual = 4.67354074654e-62, No Iterations 20
DILUPBiCGStab:  Solving for ILambda_148_0, Initial residual = 1, Final residual = 1.17634934957e-61, No Iterations 20
DILUPBiCGStab:  Solving for ILambda_149_0, Initial residual = 1, Final residual = 7.72079916064e-61, No Iterations 20
DILUPBiCGStab:  Solving for ILambda_150_0, Initial residual = 1, Final residual = 8.6991839664e-61, No Iterations 20
DILUPBiCGStab:  Solving for ILambda_151_0, Initial residual = 1, Final residual = 1.46183912832e-62, No Iterations 20
DILUPBiCGStab:  Solving for ILambda_152_0, Initial residual = 1, Final residual = 8.35490195209e-61, No Iterations 20
DILUPBiCGStab:  Solving for ILambda_153_0, Initial residual = 1, Final residual = 9.19334771483e-61, No Iterations 20
DILUPBiCGStab:  Solving for ILambda_154_0, Initial residual = 1, Final residual = 3.07831293013e-61, No Iterations 20
DILUPBiCGStab:  Solving for ILambda_155_0, Initial residual = 1, Final residual = 3.64328421649e-62, No Iterations 20
DILUPBiCGStab:  Solving for ILambda_156_0, Initial residual = 1, Final residual = 4.87462207284e-61, No Iterations 25
DILUPBiCGStab:  Solving for ILambda_157_0, Initial residual = 1, Final residual = 4.07002838885e-64, No Iterations 33
DILUPBiCGStab:  Solving for ILambda_158_0, Initial residual = 1, Final residual = 9.93902381869e-61, No Iterations 36
DILUPBiCGStab:  Solving for ILambda_159_0, Initial residual = 1, Final residual = 7.25189453913e-61, No Iterations 39
DILUPBiCGStab:  Solving for ILambda_160_0, Initial residual = 1, Final residual = 6.37218504586e-61, No Iterations 42
DILUPBiCGStab:  Solving for ILambda_161_0, Initial residual = 1, Final residual = 3.00300784735e-61, No Iterations 43
DILUPBiCGStab:  Solving for ILambda_162_0, Initial residual = 1, Final residual = 9.05170428181e-61, No Iterations 44
DILUPBiCGStab:  Solving for ILambda_163_0, Initial residual = 1, Final residual = 3.79698533087e-61, No Iterations 42
DILUPBiCGStab:  Solving for ILambda_164_0, Initial residual = 1, Final residual = 9.24005458844e-61, No Iterations 38
DILUPBiCGStab:  Solving for ILambda_165_0, Initial residual = 1, Final residual = 1.72539367697e-61, No Iterations 35
DILUPBiCGStab:  Solving for ILambda_166_0, Initial residual = 1, Final residual = 4.13830603625e-61, No Iterations 30
DILUPBiCGStab:  Solving for ILambda_167_0, Initial residual = 1, Final residual = 4.21305356175e-62, No Iterations 22
DILUPBiCGStab:  Solving for ILambda_168_0, Initial residual = 1, Final residual = 5.59518825606e-64, No Iterations 2
DILUPBiCGStab:  Solving for ILambda_169_0, Initial residual = 1, Final residual = 5.70748470548e-64, No Iterations 2
DILUPBiCGStab:  Solving for ILambda_170_0, Initial residual = 1, Final residual = 5.74797006266e-64, No Iterations 2
DILUPBiCGStab:  Solving for ILambda_171_0, Initial residual = 1, Final residual = 7.6460013597e-64, No Iterations 2
DILUPBiCGStab:  Solving for ILambda_172_0, Initial residual = 1, Final residual = 6.51958621295e-64, No Iterations 2
DILUPBiCGStab:  Solving for ILambda_173_0, Initial residual = 1, Final residual = 8.75385816747e-64, No Iterations 2
DILUPBiCGStab:  Solving for ILambda_174_0, Initial residual = 1, Final residual = 7.07213190011e-64, No Iterations 2
DILUPBiCGStab:  Solving for ILambda_175_0, Initial residual = 1, Final residual = 6.69450813241e-64, No Iterations 2
DILUPBiCGStab:  Solving for ILambda_176_0, Initial residual = 1, Final residual = 6.01315746001e-64, No Iterations 2
DILUPBiCGStab:  Solving for ILambda_177_0, Initial residual = 1, Final residual = 5.77040985873e-64, No Iterations 2
DILUPBiCGStab:  Solving for ILambda_178_0, Initial residual = 1, Final residual = 4.89148191922e-64, No Iterations 2
DILUPBiCGStab:  Solving for ILambda_179_0, Initial residual = 1, Final residual = 3.90421907745e-64, No Iterations 2
DILUPBiCGStab:  Solving for ILambda_180_0, Initial residual = 1, Final residual = 3.99748672482e-62, No Iterations 22
DILUPBiCGStab:  Solving for ILambda_181_0, Initial residual = 1, Final residual = 1.28017392491e-61, No Iterations 30
DILUPBiCGStab:  Solving for ILambda_182_0, Initial residual = 1, Final residual = 7.66528079982e-61, No Iterations 35
DILUPBiCGStab:  Solving for ILambda_183_0, Initial residual = 1, Final residual = 2.01820221713e-61, No Iterations 39
DILUPBiCGStab:  Solving for ILambda_184_0, Initial residual = 1, Final residual = 3.95043930302e-61, No Iterations 42
DILUPBiCGStab:  Solving for ILambda_185_0, Initial residual = 1, Final residual = 3.6889638829e-61, No Iterations 44
DILUPBiCGStab:  Solving for ILambda_186_0, Initial residual = 1, Final residual = 1.03199395951e-62, No Iterations 44
DILUPBiCGStab:  Solving for ILambda_187_0, Initial residual = 1, Final residual = 2.6807284571e-61, No Iterations 42
DILUPBiCGStab:  Solving for ILambda_188_0, Initial residual = 1, Final residual = 2.3796762589e-61, No Iterations 39
DILUPBiCGStab:  Solving for ILambda_189_0, Initial residual = 1, Final residual = 1.18605042574e-61, No Iterations 36
DILUPBiCGStab:  Solving for ILambda_190_0, Initial residual = 1, Final residual = 8.5173696805e-62, No Iterations 32
DILUPBiCGStab:  Solving for ILambda_191_0, Initial residual = 1, Final residual = 7.65844195174e-62, No Iterations 25
DILUPBiCGStab:  Solving for ILambda_192_0, Initial residual = 1, Final residual = 4.19445745989e-61, No Iterations 21
DILUPBiCGStab:  Solving for ILambda_193_0, Initial residual = 1, Final residual = 2.39058133657e-62, No Iterations 21
DILUPBiCGStab:  Solving for ILambda_194_0, Initial residual = 1, Final residual = 5.22049609423e-61, No Iterations 21
DILUPBiCGStab:  Solving for ILambda_195_0, Initial residual = 1, Final residual = 9.51084475628e-62, No Iterations 21
DILUPBiCGStab:  Solving for ILambda_196_0, Initial residual = 1, Final residual = 3.27226669389e-61, No Iterations 21
DILUPBiCGStab:  Solving for ILambda_197_0, Initial residual = 1, Final residual = 7.28111775077e-62, No Iterations 21
DILUPBiCGStab:  Solving for ILambda_198_0, Initial residual = 1, Final residual = 3.65169579753e-62, No Iterations 21
DILUPBiCGStab:  Solving for ILambda_199_0, Initial residual = 1, Final residual = 1.36988410315e-61, No Iterations 21
DILUPBiCGStab:  Solving for ILambda_200_0, Initial residual = 1, Final residual = 3.50752834433e-61, No Iterations 21
DILUPBiCGStab:  Solving for ILambda_201_0, Initial residual = 1, Final residual = 1.9843860761e-61, No Iterations 21
DILUPBiCGStab:  Solving for ILambda_202_0, Initial residual = 1, Final residual = 9.29422986787e-62, No Iterations 21
DILUPBiCGStab:  Solving for ILambda_203_0, Initial residual = 1, Final residual = 1.04393603851e-61, No Iterations 21
DILUPBiCGStab:  Solving for ILambda_204_0, Initial residual = 1, Final residual = 3.1292165792e-62, No Iterations 22
DILUPBiCGStab:  Solving for ILambda_205_0, Initial residual = 1, Final residual = 4.13943353708e-61, No Iterations 27
DILUPBiCGStab:  Solving for ILambda_206_0, Initial residual = 1, Final residual = 1.64098814227e-61, No Iterations 31
DILUPBiCGStab:  Solving for ILambda_207_0, Initial residual = 1, Final residual = 1.44731198203e-61, No Iterations 34
DILUPBiCGStab:  Solving for ILambda_208_0, Initial residual = 1, Final residual = 8.56300546189e-61, No Iterations 35
DILUPBiCGStab:  Solving for ILambda_209_0, Initial residual = 1, Final residual = 4.72833108815e-62, No Iterations 37
DILUPBiCGStab:  Solving for ILambda_210_0, Initial residual = 1, Final residual = 7.06008485628e-61, No Iterations 36
DILUPBiCGStab:  Solving for ILambda_211_0, Initial residual = 1, Final residual = 9.09942389318e-61, No Iterations 35
DILUPBiCGStab:  Solving for ILambda_212_0, Initial residual = 1, Final residual = 4.69610088492e-61, No Iterations 33
DILUPBiCGStab:  Solving for ILambda_213_0, Initial residual = 1, Final residual = 7.66716325581e-61, No Iterations 30
DILUPBiCGStab:  Solving for ILambda_214_0, Initial residual = 1, Final residual = 4.57392370054e-61, No Iterations 26
DILUPBiCGStab:  Solving for ILambda_215_0, Initial residual = 1, Final residual = 6.55783255091e-62, No Iterations 19
DILUPBiCGStab:  Solving for ILambda_216_0, Initial residual = 1, Final residual = 5.18680015409e-64, No Iterations 2
DILUPBiCGStab:  Solving for ILambda_217_0, Initial residual = 1, Final residual = 5.19130201847e-64, No Iterations 2
DILUPBiCGStab:  Solving for ILambda_218_0, Initial residual = 1, Final residual = 5.46233977627e-64, No Iterations 2
DILUPBiCGStab:  Solving for ILambda_219_0, Initial residual = 1, Final residual = 5.53372271232e-64, No Iterations 2
DILUPBiCGStab:  Solving for ILambda_220_0, Initial residual = 1, Final residual = 8.02469109837e-64, No Iterations 2
DILUPBiCGStab:  Solving for ILambda_221_0, Initial residual = 1, Final residual = 1.01907869267e-63, No Iterations 2
DILUPBiCGStab:  Solving for ILambda_222_0, Initial residual = 1, Final residual = 5.11269985981e-64, No Iterations 2
DILUPBiCGStab:  Solving for ILambda_223_0, Initial residual = 1, Final residual = 5.4883972139e-64, No Iterations 2
DILUPBiCGStab:  Solving for ILambda_224_0, Initial residual = 1, Final residual = 5.08526268202e-64, No Iterations 2
DILUPBiCGStab:  Solving for ILambda_225_0, Initial residual = 1, Final residual = 4.83964709951e-64, No Iterations 2
DILUPBiCGStab:  Solving for ILambda_226_0, Initial residual = 1, Final residual = 4.30070150085e-64, No Iterations 2
DILUPBiCGStab:  Solving for ILambda_227_0, Initial residual = 1, Final residual = 9.15251862267e-64, No Iterations 2
DILUPBiCGStab:  Solving for ILambda_228_0, Initial residual = 1, Final residual = 5.75434391951e-62, No Iterations 19
DILUPBiCGStab:  Solving for ILambda_229_0, Initial residual = 1, Final residual = 9.69853010907e-61, No Iterations 26
DILUPBiCGStab:  Solving for ILambda_230_0, Initial residual = 1, Final residual = 7.62269008361e-61, No Iterations 30
DILUPBiCGStab:  Solving for ILambda_231_0, Initial residual = 1, Final residual = 4.18458968162e-61, No Iterations 33
DILUPBiCGStab:  Solving for ILambda_232_0, Initial residual = 1, Final residual = 5.85166611395e-61, No Iterations 35
DILUPBiCGStab:  Solving for ILambda_233_0, Initial residual = 1, Final residual = 2.54166102934e-61, No Iterations 36
DILUPBiCGStab:  Solving for ILambda_234_0, Initial residual = 1, Final residual = 7.86698547673e-61, No Iterations 36
DILUPBiCGStab:  Solving for ILambda_235_0, Initial residual = 1, Final residual = 9.39810384106e-61, No Iterations 35
DILUPBiCGStab:  Solving for ILambda_236_0, Initial residual = 1, Final residual = 2.26597392927e-61, No Iterations 34
DILUPBiCGStab:  Solving for ILambda_237_0, Initial residual = 1, Final residual = 1.46769591717e-61, No Iterations 31
DILUPBiCGStab:  Solving for ILambda_238_0, Initial residual = 1, Final residual = 5.06134781233e-61, No Iterations 27
DILUPBiCGStab:  Solving for ILambda_239_0, Initial residual = 1, Final residual = 7.22514256679e-61, No Iterations 22
DILUPBiCGStab:  Solving for ILambda_240_0, Initial residual = 1, Final residual = 8.70760777181e-61, No Iterations 19
DILUPBiCGStab:  Solving for ILambda_241_0, Initial residual = 1, Final residual = 3.37912498062e-62, No Iterations 20
DILUPBiCGStab:  Solving for ILambda_242_0, Initial residual = 1, Final residual = 7.00087227683e-62, No Iterations 21
DILUPBiCGStab:  Solving for ILambda_243_0, Initial residual = 1, Final residual = 1.39014754468e-61, No Iterations 21
DILUPBiCGStab:  Solving for ILambda_244_0, Initial residual = 1, Final residual = 9.63809855983e-63, No Iterations 21
DILUPBiCGStab:  Solving for ILambda_245_0, Initial residual = 1, Final residual = 5.20102026347e-62, No Iterations 21
DILUPBiCGStab:  Solving for ILambda_246_0, Initial residual = 1, Final residual = 1.49178156113e-62, No Iterations 21
DILUPBiCGStab:  Solving for ILambda_247_0, Initial residual = 1, Final residual = 2.04318028913e-62, No Iterations 21
DILUPBiCGStab:  Solving for ILambda_248_0, Initial residual = 1, Final residual = 4.73887473876e-62, No Iterations 21
DILUPBiCGStab:  Solving for ILambda_249_0, Initial residual = 1, Final residual = 2.66665955115e-62, No Iterations 21
DILUPBiCGStab:  Solving for ILambda_250_0, Initial residual = 1, Final residual = 6.345372796e-61, No Iterations 20
DILUPBiCGStab:  Solving for ILambda_251_0, Initial residual = 1, Final residual = 2.88328969985e-61, No Iterations 19
DILUPBiCGStab:  Solving for ILambda_252_0, Initial residual = 1, Final residual = 1.57231399513e-62, No Iterations 19
DILUPBiCGStab:  Solving for ILambda_253_0, Initial residual = 1, Final residual = 8.33033518257e-61, No Iterations 20
DILUPBiCGStab:  Solving for ILambda_254_0, Initial residual = 1, Final residual = 3.8437506668e-62, No Iterations 22
DILUPBiCGStab:  Solving for ILambda_255_0, Initial residual = 1, Final residual = 8.02492158928e-62, No Iterations 23
DILUPBiCGStab:  Solving for ILambda_256_0, Initial residual = 1, Final residual = 3.31077798901e-61, No Iterations 24
DILUPBiCGStab:  Solving for ILambda_257_0, Initial residual = 1, Final residual = 8.72597753361e-61, No Iterations 24
DILUPBiCGStab:  Solving for ILambda_258_0, Initial residual = 1, Final residual = 3.58699855911e-61, No Iterations 24
DILUPBiCGStab:  Solving for ILambda_259_0, Initial residual = 1, Final residual = 2.40542976792e-61, No Iterations 23
DILUPBiCGStab:  Solving for ILambda_260_0, Initial residual = 1, Final residual = 3.0580769671e-61, No Iterations 22
DILUPBiCGStab:  Solving for ILambda_261_0, Initial residual = 1, Final residual = 5.21592405099e-61, No Iterations 21
DILUPBiCGStab:  Solving for ILambda_262_0, Initial residual = 1, Final residual = 8.58435161656e-62, No Iterations 19
DILUPBiCGStab:  Solving for ILambda_263_0, Initial residual = 1, Final residual = 1.25888141859e-61, No Iterations 15
DILUPBiCGStab:  Solving for ILambda_264_0, Initial residual = 1, Final residual = 4.81747372974e-64, No Iterations 2
DILUPBiCGStab:  Solving for ILambda_265_0, Initial residual = 1, Final residual = 5.28246996515e-64, No Iterations 2
DILUPBiCGStab:  Solving for ILambda_266_0, Initial residual = 1, Final residual = 5.28794681859e-64, No Iterations 2
DILUPBiCGStab:  Solving for ILambda_267_0, Initial residual = 1, Final residual = 5.16494044066e-64, No Iterations 2
DILUPBiCGStab:  Solving for ILambda_268_0, Initial residual = 1, Final residual = 5.22498678815e-64, No Iterations 2
DILUPBiCGStab:  Solving for ILambda_269_0, Initial residual = 1, Final residual = 5.19038250389e-64, No Iterations 2
DILUPBiCGStab:  Solving for ILambda_270_0, Initial residual = 1, Final residual = 5.36859157355e-64, No Iterations 2
DILUPBiCGStab:  Solving for ILambda_271_0, Initial residual = 1, Final residual = 5.0815831415e-64, No Iterations 2
DILUPBiCGStab:  Solving for ILambda_272_0, Initial residual = 1, Final residual = 5.10720767549e-64, No Iterations 2
DILUPBiCGStab:  Solving for ILambda_273_0, Initial residual = 1, Final residual = 5.19102159608e-64, No Iterations 2
DILUPBiCGStab:  Solving for ILambda_274_0, Initial residual = 1, Final residual = 4.97669456662e-64, No Iterations 2
DILUPBiCGStab:  Solving for ILambda_275_0, Initial residual = 1, Final residual = 5.58029786559e-63, No Iterations 2
DILUPBiCGStab:  Solving for ILambda_276_0, Initial residual = 1, Final residual = 1.89531029039e-61, No Iterations 15
DILUPBiCGStab:  Solving for ILambda_277_0, Initial residual = 1, Final residual = 8.02583595153e-62, No Iterations 19
DILUPBiCGStab:  Solving for ILambda_278_0, Initial residual = 1, Final residual = 3.66865243608e-61, No Iterations 21
DILUPBiCGStab:  Solving for ILambda_279_0, Initial residual = 1, Final residual = 8.56096564453e-61, No Iterations 22
DILUPBiCGStab:  Solving for ILambda_280_0, Initial residual = 1, Final residual = 2.80179163414e-61, No Iterations 23
DILUPBiCGStab:  Solving for ILambda_281_0, Initial residual = 1, Final residual = 2.5779501994e-61, No Iterations 24
DILUPBiCGStab:  Solving for ILambda_282_0, Initial residual = 1, Final residual = 7.3920958257e-61, No Iterations 24
DILUPBiCGStab:  Solving for ILambda_283_0, Initial residual = 1, Final residual = 1.68436797835e-61, No Iterations 24
DILUPBiCGStab:  Solving for ILambda_284_0, Initial residual = 1, Final residual = 5.62771937913e-62, No Iterations 23
DILUPBiCGStab:  Solving for ILambda_285_0, Initial residual = 1, Final residual = 3.47144958788e-62, No Iterations 22
[...]
DILUPBiCGStab:  Solving for ILambda_140_0, Initial residual = 1.85895114952e-15, Final residual = 7.20875603947e-61, No Iterations 28
DILUPBiCGStab:  Solving for ILambda_141_0, Initial residual = 1.71315105936e-15, Final residual = 2.66893266419e-61, No Iterations 26
DILUPBiCGStab:  Solving for ILambda_142_0, Initial residual = 1.70889257418e-15, Final residual = 5.36836407423e-61, No Iterations 22
DILUPBiCGStab:  Solving for ILambda_143_0, Initial residual = 1.62251548407e-15, Final residual = 1.11330806335e-61, No Iterations 16
DILUPBiCGStab:  Solving for ILambda_144_0, Initial residual = 1.54680908092e-15, Final residual = 6.54937935321e-62, No Iterations 14
DILUPBiCGStab:  Solving for ILambda_145_0, Initial residual = 1.62426129981e-15, Final residual = 4.63041998732e-61, No Iterations 15
DILUPBiCGStab:  Solving for ILambda_146_0, Initial residual = 1.88887475797e-15, Final residual = 1.14010803136e-62, No Iterations 15
DILUPBiCGStab:  Solving for ILambda_147_0, Initial residual = 2.02442837805e-15, Final residual = 9.46931923666e-62, No Iterations 15
DILUPBiCGStab:  Solving for ILambda_148_0, Initial residual = 2.00556704141e-15, Final residual = 1.15568109375e-61, No Iterations 16
DILUPBiCGStab:  Solving for ILambda_149_0, Initial residual = 2.01331715811e-15, Final residual = 1.86621935646e-61, No Iterations 16
DILUPBiCGStab:  Solving for ILambda_150_0, Initial residual = 1.93648494856e-15, Final residual = 1.42250928384e-61, No Iterations 15
DILUPBiCGStab:  Solving for ILambda_151_0, Initial residual = 1.88182623079e-15, Final residual = 1.56429492865e-61, No Iterations 15
DILUPBiCGStab:  Solving for ILambda_152_0, Initial residual = 1.84147667584e-15, Final residual = 2.20901563604e-61, No Iterations 15
DILUPBiCGStab:  Solving for ILambda_153_0, Initial residual = 1.7494705536e-15, Final residual = 1.52871043945e-61, No Iterations 15
DILUPBiCGStab:  Solving for ILambda_154_0, Initial residual = 1.66410505766e-15, Final residual = 3.72177136851e-61, No Iterations 15
DILUPBiCGStab:  Solving for ILambda_155_0, Initial residual = 1.5875012726e-15, Final residual = 1.78079539156e-62, No Iterations 15
DILUPBiCGStab:  Solving for ILambda_156_0, Initial residual = 1.56260300295e-15, Final residual = 3.18194542921e-61, No Iterations 20
DILUPBiCGStab:  Solving for ILambda_157_0, Initial residual = 1.62600711557e-15, Final residual = 2.65808443152e-62, No Iterations 25
DILUPBiCGStab:  Solving for ILambda_158_0, Initial residual = 1.86534703528e-15, Final residual = 2.90068177382e-61, No Iterations 27
DILUPBiCGStab:  Solving for ILambda_159_0, Initial residual = 2.01933777508e-15, Final residual = 7.26584212761e-61, No Iterations 29
DILUPBiCGStab:  Solving for ILambda_160_0, Initial residual = 2.08890934899e-15, Final residual = 4.81747788222e-61, No Iterations 30
DILUPBiCGStab:  Solving for ILambda_161_0, Initial residual = 2.0454271153e-15, Final residual = 1.65895841018e-61, No Iterations 31
DILUPBiCGStab:  Solving for ILambda_162_0, Initial residual = 1.96539696286e-15, Final residual = 9.05740764447e-61, No Iterations 31
DILUPBiCGStab:  Solving for ILambda_163_0, Initial residual = 1.90669186836e-15, Final residual = 4.51390839501e-61, No Iterations 30
DILUPBiCGStab:  Solving for ILambda_164_0, Initial residual = 1.87371716131e-15, Final residual = 1.94542991715e-61, No Iterations 28
DILUPBiCGStab:  Solving for ILambda_165_0, Initial residual = 1.70016349536e-15, Final residual = 7.57043657639e-61, No Iterations 26
DILUPBiCGStab:  Solving for ILambda_166_0, Initial residual = 1.60277308151e-15, Final residual = 2.44162203205e-61, No Iterations 22
DILUPBiCGStab:  Solving for ILambda_167_0, Initial residual = 1.55116546231e-15, Final residual = 1.15921898454e-61, No Iterations 16
DILUPBiCGStab:  Solving for ILambda_168_0, Initial residual = 1.63122824682e-15, Final residual = 3.19525382008e-63, No Iterations 2
DILUPBiCGStab:  Solving for ILambda_169_0, Initial residual = 1.66428453405e-15, Final residual = 3.57399999561e-63, No Iterations 2
DILUPBiCGStab:  Solving for ILambda_170_0, Initial residual = 1.76071230182e-15, Final residual = 3.71434587482e-63, No Iterations 2
DILUPBiCGStab:  Solving for ILambda_171_0, Initial residual = 1.85942431452e-15, Final residual = 3.92594801021e-63, No Iterations 2
DILUPBiCGStab:  Solving for ILambda_172_0, Initial residual = 1.88531786231e-15, Final residual = 4.15177810738e-63, No Iterations 2
DILUPBiCGStab:  Solving for ILambda_173_0, Initial residual = 1.90264549165e-15, Final residual = 4.2015621995e-63, No Iterations 2
DILUPBiCGStab:  Solving for ILambda_174_0, Initial residual = 2.0186035535e-15, Final residual = 4.35842414138e-63, No Iterations 2
DILUPBiCGStab:  Solving for ILambda_175_0, Initial residual = 1.95417153067e-15, Final residual = 4.20708814254e-63, No Iterations 2
DILUPBiCGStab:  Solving for ILambda_176_0, Initial residual = 2.05650570317e-15, Final residual = 4.26396484554e-63, No Iterations 2
DILUPBiCGStab:  Solving for ILambda_177_0, Initial residual = 1.97603501778e-15, Final residual = 4.03586860841e-63, No Iterations 2
DILUPBiCGStab:  Solving for ILambda_178_0, Initial residual = 1.61977439014e-15, Final residual = 3.27123183073e-63, No Iterations 2
DILUPBiCGStab:  Solving for ILambda_179_0, Initial residual = 1.54434535961e-15, Final residual = 2.72046757097e-63, No Iterations 2
DILUPBiCGStab:  Solving for ILambda_180_0, Initial residual = 1.57022259137e-15, Final residual = 9.34720990768e-62, No Iterations 16
DILUPBiCGStab:  Solving for ILambda_181_0, Initial residual = 1.68249322928e-15, Final residual = 1.75605662363e-61, No Iterations 22
DILUPBiCGStab:  Solving for ILambda_182_0, Initial residual = 1.73679299428e-15, Final residual = 6.80644847227e-61, No Iterations 26
DILUPBiCGStab:  Solving for ILambda_183_0, Initial residual = 1.89055530959e-15, Final residual = 4.90581796602e-61, No Iterations 29
DILUPBiCGStab:  Solving for ILambda_184_0, Initial residual = 1.87639299108e-15, Final residual = 2.73696076692e-61, No Iterations 30
DILUPBiCGStab:  Solving for ILambda_185_0, Initial residual = 1.8947811627e-15, Final residual = 3.74424028569e-61, No Iterations 30
DILUPBiCGStab:  Solving for ILambda_186_0, Initial residual = 1.99855114629e-15, Final residual = 6.92613116546e-61, No Iterations 31
DILUPBiCGStab:  Solving for ILambda_187_0, Initial residual = 1.93526124592e-15, Final residual = 9.27155265133e-61, No Iterations 30
DILUPBiCGStab:  Solving for ILambda_188_0, Initial residual = 2.04740135555e-15, Final residual = 2.27292332868e-61, No Iterations 29
DILUPBiCGStab:  Solving for ILambda_189_0, Initial residual = 1.95591734643e-15, Final residual = 1.14163026908e-61, No Iterations 28
DILUPBiCGStab:  Solving for ILambda_190_0, Initial residual = 1.644770556e-15, Final residual = 4.89803724391e-62, No Iterations 25
DILUPBiCGStab:  Solving for ILambda_191_0, Initial residual = 1.54555274621e-15, Final residual = 2.42735241653e-61, No Iterations 20
DILUPBiCGStab:  Solving for ILambda_192_0, Initial residual = 6.07617307248e-16, Final residual = 1.10190801563e-61, No Iterations 15
DILUPBiCGStab:  Solving for ILambda_193_0, Initial residual = 6.66640564427e-16, Final residual = 4.05036377813e-62, No Iterations 15
DILUPBiCGStab:  Solving for ILambda_194_0, Initial residual = 7.48971277827e-16, Final residual = 5.5520377957e-62, No Iterations 16
DILUPBiCGStab:  Solving for ILambda_195_0, Initial residual = 7.95981854122e-16, Final residual = 2.78294017318e-61, No Iterations 16
DILUPBiCGStab:  Solving for ILambda_196_0, Initial residual = 8.63159049871e-16, Final residual = 1.68012302769e-61, No Iterations 16
DILUPBiCGStab:  Solving for ILambda_197_0, Initial residual = 8.22589228454e-16, Final residual = 7.37775213809e-61, No Iterations 17
DILUPBiCGStab:  Solving for ILambda_198_0, Initial residual = 8.39064344953e-16, Final residual = 8.73611072035e-62, No Iterations 16
DILUPBiCGStab:  Solving for ILambda_199_0, Initial residual = 8.34373484846e-16, Final residual = 6.03204667004e-61, No Iterations 16
DILUPBiCGStab:  Solving for ILambda_200_0, Initial residual = 8.20818938639e-16, Final residual = 2.09693145551e-62, No Iterations 16
DILUPBiCGStab:  Solving for ILambda_201_0, Initial residual = 7.4114773897e-16, Final residual = 2.90818952956e-61, No Iterations 16
DILUPBiCGStab:  Solving for ILambda_202_0, Initial residual = 6.84286356449e-16, Final residual = 4.27975284487e-62, No Iterations 16
DILUPBiCGStab:  Solving for ILambda_203_0, Initial residual = 6.05055689729e-16, Final residual = 4.8284585745e-61, No Iterations 16
DILUPBiCGStab:  Solving for ILambda_204_0, Initial residual = 6.04655946867e-16, Final residual = 3.37987440047e-62, No Iterations 18
DILUPBiCGStab:  Solving for ILambda_205_0, Initial residual = 6.65473967914e-16, Final residual = 1.41163339709e-61, No Iterations 21
DILUPBiCGStab:  Solving for ILambda_206_0, Initial residual = 7.55636378189e-16, Final residual = 7.73031826136e-61, No Iterations 23
DILUPBiCGStab:  Solving for ILambda_207_0, Initial residual = 7.89936763097e-16, Final residual = 3.53938728832e-61, No Iterations 25
DILUPBiCGStab:  Solving for ILambda_208_0, Initial residual = 8.47511972155e-16, Final residual = 5.75103208098e-61, No Iterations 26
DILUPBiCGStab:  Solving for ILambda_209_0, Initial residual = 8.55853545129e-16, Final residual = 4.70280513896e-61, No Iterations 26
DILUPBiCGStab:  Solving for ILambda_210_0, Initial residual = 8.30461715417e-16, Final residual = 4.02607523568e-61, No Iterations 26
DILUPBiCGStab:  Solving for ILambda_211_0, Initial residual = 8.28307998776e-16, Final residual = 7.97800119493e-61, No Iterations 25
DILUPBiCGStab:  Solving for ILambda_212_0, Initial residual = 7.94040245939e-16, Final residual = 4.9337961059e-61, No Iterations 24
DILUPBiCGStab:  Solving for ILambda_213_0, Initial residual = 7.84222071783e-16, Final residual = 6.29586825446e-61, No Iterations 22
DILUPBiCGStab:  Solving for ILambda_214_0, Initial residual = 6.71013261849e-16, Final residual = 1.08024513866e-61, No Iterations 19
DILUPBiCGStab:  Solving for ILambda_215_0, Initial residual = 6.30406729353e-16, Final residual = 3.00753945878e-61, No Iterations 14
DILUPBiCGStab:  Solving for ILambda_216_0, Initial residual = 6.13221865325e-16, Final residual = 1.07506601661e-63, No Iterations 2
DILUPBiCGStab:  Solving for ILambda_217_0, Initial residual = 6.80635643583e-16, Final residual = 1.18759661586e-63, No Iterations 2
DILUPBiCGStab:  Solving for ILambda_218_0, Initial residual = 7.66123509786e-16, Final residual = 1.40998456077e-63, No Iterations 2
DILUPBiCGStab:  Solving for ILambda_219_0, Initial residual = 8.35744031799e-16, Final residual = 1.5874733733e-63, No Iterations 2
DILUPBiCGStab:  Solving for ILambda_220_0, Initial residual = 8.1098036944e-16, Final residual = 1.55838952861e-63, No Iterations 2
DILUPBiCGStab:  Solving for ILambda_221_0, Initial residual = 8.03462756241e-16, Final residual = 1.41161410989e-63, No Iterations 2
DILUPBiCGStab:  Solving for ILambda_222_0, Initial residual = 8.25048870754e-16, Final residual = 1.45828929713e-63, No Iterations 2
DILUPBiCGStab:  Solving for ILambda_223_0, Initial residual = 8.31155146911e-16, Final residual = 1.50443936221e-63, No Iterations 2
DILUPBiCGStab:  Solving for ILambda_224_0, Initial residual = 7.8392838315e-16, Final residual = 1.43659873549e-63, No Iterations 2
DILUPBiCGStab:  Solving for ILambda_225_0, Initial residual = 7.3885533603e-16, Final residual = 1.31370384674e-63, No Iterations 2
DILUPBiCGStab:  Solving for ILambda_226_0, Initial residual = 6.56985550623e-16, Final residual = 1.08190706892e-63, No Iterations 2
DILUPBiCGStab:  Solving for ILambda_227_0, Initial residual = 6.16452440286e-16, Final residual = 1.0514157343e-63, No Iterations 2
DILUPBiCGStab:  Solving for ILambda_228_0, Initial residual = 6.24414665442e-16, Final residual = 7.30519407501e-63, No Iterations 15
DILUPBiCGStab:  Solving for ILambda_229_0, Initial residual = 6.75247272972e-16, Final residual = 9.90264135368e-62, No Iterations 19
DILUPBiCGStab:  Solving for ILambda_230_0, Initial residual = 7.62815433658e-16, Final residual = 8.78145267166e-62, No Iterations 22
DILUPBiCGStab:  Solving for ILambda_231_0, Initial residual = 8.32656222145e-16, Final residual = 1.29649204535e-61, No Iterations 24
DILUPBiCGStab:  Solving for ILambda_232_0, Initial residual = 7.86363551397e-16, Final residual = 1.1760717683e-61, No Iterations 25
DILUPBiCGStab:  Solving for ILambda_233_0, Initial residual = 8.05771475216e-16, Final residual = 1.70108860503e-61, No Iterations 26
DILUPBiCGStab:  Solving for ILambda_234_0, Initial residual = 8.49163970715e-16, Final residual = 3.9685734922e-61, No Iterations 26
DILUPBiCGStab:  Solving for ILambda_235_0, Initial residual = 8.35274945788e-16, Final residual = 2.54005605022e-61, No Iterations 25
DILUPBiCGStab:  Solving for ILambda_236_0, Initial residual = 7.89039381163e-16, Final residual = 2.71458822942e-61, No Iterations 25
DILUPBiCGStab:  Solving for ILambda_237_0, Initial residual = 7.5488991958e-16, Final residual = 2.48305116796e-61, No Iterations 23
DILUPBiCGStab:  Solving for ILambda_238_0, Initial residual = 6.51348360477e-16, Final residual = 8.32461214528e-61, No Iterations 21
DILUPBiCGStab:  Solving for ILambda_239_0, Initial residual = 6.1815746596e-16, Final residual = 3.73295410335e-62, No Iterations 18
DILUPBiCGStab:  Solving for ILambda_240_0, Initial residual = 4.10136175731e-16, Final residual = 7.70455578816e-61, No Iterations 14
DILUPBiCGStab:  Solving for ILambda_241_0, Initial residual = 4.16054817484e-16, Final residual = 3.23170968946e-63, No Iterations 14
DILUPBiCGStab:  Solving for ILambda_242_0, Initial residual = 4.21116867391e-16, Final residual = 2.51993155451e-61, No Iterations 14
DILUPBiCGStab:  Solving for ILambda_243_0, Initial residual = 4.2337663826e-16, Final residual = 7.02248353053e-62, No Iterations 14
DILUPBiCGStab:  Solving for ILambda_244_0, Initial residual = 4.37734749198e-16, Final residual = 7.32839900307e-62, No Iterations 15
DILUPBiCGStab:  Solving for ILambda_245_0, Initial residual = 4.18954992733e-16, Final residual = 1.29889451307e-62, No Iterations 14
DILUPBiCGStab:  Solving for ILambda_246_0, Initial residual = 4.23115581698e-16, Final residual = 1.45291034012e-61, No Iterations 14
DILUPBiCGStab:  Solving for ILambda_247_0, Initial residual = 4.33329419706e-16, Final residual = 5.87858909994e-62, No Iterations 14
DILUPBiCGStab:  Solving for ILambda_248_0, Initial residual = 4.27720782621e-16, Final residual = 9.32310142391e-61, No Iterations 14
DILUPBiCGStab:  Solving for ILambda_249_0, Initial residual = 4.27186432469e-16, Final residual = 5.06410642162e-61, No Iterations 14
DILUPBiCGStab:  Solving for ILambda_250_0, Initial residual = 4.25306009418e-16, Final residual = 7.10622703064e-61, No Iterations 14
DILUPBiCGStab:  Solving for ILambda_251_0, Initial residual = 4.16368901161e-16, Final residual = 1.91002094729e-61, No Iterations 14
DILUPBiCGStab:  Solving for ILambda_252_0, Initial residual = 4.19256839383e-16, Final residual = 6.94271390102e-62, No Iterations 15
DILUPBiCGStab:  Solving for ILambda_253_0, Initial residual = 4.28895537152e-16, Final residual = 1.16532180365e-62, No Iterations 17
DILUPBiCGStab:  Solving for ILambda_254_0, Initial residual = 4.179189245e-16, Final residual = 2.64826910449e-63, No Iterations 18
DILUPBiCGStab:  Solving for ILambda_255_0, Initial residual = 4.23564272665e-16, Final residual = 4.04591454618e-62, No Iterations 18
DILUPBiCGStab:  Solving for ILambda_256_0, Initial residual = 4.44905646649e-16, Final residual = 6.35248959566e-63, No Iterations 19
DILUPBiCGStab:  Solving for ILambda_257_0, Initial residual = 4.30388454369e-16, Final residual = 1.16082727383e-61, No Iterations 18
DILUPBiCGStab:  Solving for ILambda_258_0, Initial residual = 4.20651860389e-16, Final residual = 8.91954897602e-61, No Iterations 18
DILUPBiCGStab:  Solving for ILambda_259_0, Initial residual = 4.23315453128e-16, Final residual = 1.13361716673e-61, No Iterations 18
DILUPBiCGStab:  Solving for ILambda_260_0, Initial residual = 4.3621327892e-16, Final residual = 6.0526056335e-61, No Iterations 17
DILUPBiCGStab:  Solving for ILambda_261_0, Initial residual = 4.32325983544e-16, Final residual = 3.2981306656e-61, No Iterations 16
DILUPBiCGStab:  Solving for ILambda_262_0, Initial residual = 4.30086607718e-16, Final residual = 5.20540188677e-62, No Iterations 14
DILUPBiCGStab:  Solving for ILambda_263_0, Initial residual = 4.10739869032e-16, Final residual = 2.5508508803e-63, No Iterations 12
DILUPBiCGStab:  Solving for ILambda_264_0, Initial residual = 4.13933732913e-16, Final residual = 7.76481740548e-64, No Iterations 2
DILUPBiCGStab:  Solving for ILambda_265_0, Initial residual = 4.24306652264e-16, Final residual = 7.97535420871e-64, No Iterations 2
DILUPBiCGStab:  Solving for ILambda_266_0, Initial residual = 4.18334983397e-16, Final residual = 8.04991346328e-64, No Iterations 2
DILUPBiCGStab:  Solving for ILambda_267_0, Initial residual = 4.27006956083e-16, Final residual = 7.8412275951e-64, No Iterations 2
DILUPBiCGStab:  Solving for ILambda_268_0, Initial residual = 4.39721226478e-16, Final residual = 8.26148703e-64, No Iterations 2
DILUPBiCGStab:  Solving for ILambda_269_0, Initial residual = 4.29584889637e-16, Final residual = 8.18193184095e-64, No Iterations 2
DILUPBiCGStab:  Solving for ILambda_270_0, Initial residual = 4.19069204979e-16, Final residual = 7.95388831983e-64, No Iterations 2
DILUPBiCGStab:  Solving for ILambda_271_0, Initial residual = 4.35385240136e-16, Final residual = 8.23197749941e-64, No Iterations 2
DILUPBiCGStab:  Solving for ILambda_272_0, Initial residual = 4.35275106898e-16, Final residual = 7.96867020393e-64, No Iterations 2
DILUPBiCGStab:  Solving for ILambda_273_0, Initial residual = 4.24804291337e-16, Final residual = 8.27004473188e-64, No Iterations 2
DILUPBiCGStab:  Solving for ILambda_274_0, Initial residual = 4.23087028636e-16, Final residual = 7.55066709462e-64, No Iterations 2
DILUPBiCGStab:  Solving for ILambda_275_0, Initial residual = 4.15051381322e-16, Final residual = 7.61687001377e-64, No Iterations 2
DILUPBiCGStab:  Solving for ILambda_276_0, Initial residual = 4.08753391751e-16, Final residual = 3.48469608902e-61, No Iterations 11
DILUPBiCGStab:  Solving for ILambda_277_0, Initial residual = 4.26958007977e-16, Final residual = 5.78876077362e-62, No Iterations 14
DILUPBiCGStab:  Solving for ILambda_278_0, Initial residual = 4.18543012845e-16, Final residual = 3.78128150504e-61, No Iterations 16
DILUPBiCGStab:  Solving for ILambda_279_0, Initial residual = 4.182901143e-16, Final residual = 1.11875839259e-61, No Iterations 17
DILUPBiCGStab:  Solving for ILambda_280_0, Initial residual = 4.37681722084e-16, Final residual = 8.14469601845e-62, No Iterations 18
DILUPBiCGStab:  Solving for ILambda_281_0, Initial residual = 4.29976474481e-16, Final residual = 1.22681912286e-61, No Iterations 18
DILUPBiCGStab:  Solving for ILambda_282_0, Initial residual = 4.3011516078e-16, Final residual = 2.17187900909e-61, No Iterations 18
DILUPBiCGStab:  Solving for ILambda_283_0, Initial residual = 4.32187297245e-16, Final residual = 9.67706051827e-61, No Iterations 18
DILUPBiCGStab:  Solving for ILambda_284_0, Initial residual = 4.34287986771e-16, Final residual = 7.55669552623e-62, No Iterations 18
DILUPBiCGStab:  Solving for ILambda_285_0, Initial residual = 4.25073505917e-16, Final residual = 1.20132886236e-61, No Iterations 17
DILUPBiCGStab:  Solving for ILambda_286_0, Initial residual = 4.17384574349e-16, Final residual = 3.19940693504e-64, No Iterations 17
DILUPBiCGStab:  Solving for ILambda_287_0, Initial residual = 4.13644123289e-16, Final residual = 9.24355739957e-61, No Iterations 15
min/max(T) = 1000, 1000
ExecutionTime = 311.9 s  ClockTime = 312 s

writeObjects writeObjects1.writeObjects write:
    writing object a
    writing object qem
End

