/*---------------------------------------------------------------------------*\
| =========                 |                                                 |
| \\      /  F ield         | OpenFOAM: The Open Source CFD Toolbox           |
|  \\    /   O peration     | Version:  2306                                  |
|   \\  /    A nd           | Website:  www.openfoam.com                      |
|    \\/     M anipulation  |                                                 |
\*---------------------------------------------------------------------------*/
Build  : _fbf00d6b-20230626 OPENFOAM=2306 version=2306
Arch   : "LSB;label=32;scalar=64"
Exec   : fireRADFoam_MaCFP
Date   : Mar 12 2024
Time   : 20:28:42
Host   : pop-os
PID    : 181834
I/O    : uncollated
Case   : /home/rafay/Desktop/Study/Radiative_Heat_Transfer/Local_copy_RHT2324/01_Projects/02_Rafay/Case_1_q1D_SolidAngle/new_case3/th_6-ph_12/tau_0.1/res_4
nProcs : 1
trapFpe: Floating point exception trapping enabled (FOAM_SIGFPE).
fileModificationChecking : Monitoring run-time modified files using timeStampMaster (fileModificationSkew 5, maxFileModificationPolls 20)
allowSystemOperations : Allowing user-supplied system call operations

// * * * * * * * * * * * * * * * * * * * * * * * * * * * * * * * * * * * * * //
Create time

Create mesh for time = 0


PIMPLE: no residual control data found. Calculations will employ 10 corrector loops

Reading thermophysical properties

Selecting thermodynamics package 
{
    type            hePsiThermo;
    mixture         singleStepReactingMixture;
    transport       sutherland;
    thermo          janaf;
    energy          sensibleEnthalpy;
    equationOfState perfectGas;
    specie          specie;
}

Selecting chemistryReader foamChemistryReader
    elements not defined in "/home/rafay/Desktop/Study/Radiative_Heat_Transfer/Local_copy_RHT2324/01_Projects/02_Rafay/Case_1_q1D_SolidAngle/new_case3/th_6-ph_12/tau_0.1/res_4/constant/reactions"
Fuel heat of combustion :47168962.4726
stoichiometric air-fuel ratio :14.6914056505
stoichiometric oxygen-fuel ratio :3.42181919285
Maximum products mass concentrations:
    H2O: 0.0818486943001
    CO2: 0.199950099979
    N2: 0.718201205721
Creating component thermo properties:
    multi-component carrier - 6 species
    no liquid components
    no solid components
Creating field rho


Reading field U

Reading/calculating face flux field phi

Selecting radiationModel fvDOM
Selecting absorptionEmissionModel constantAbsorptionEmission
Selecting scatterModel none
Selecting sootModel none
fvDOM : Allocated 288 rays with average orientation:
	I0 : dAve : 	(0.000387488209079 0.00591192763451 0.0163624617374) : omega : 	0.0175372336349 : d : 	(0.0169275754541 0.25826489366 0.965925826289)
	I1 : dAve : 	(0.00115583459655 0.00581077291359 0.0163624617374) : omega : 	0.0175372336349 : d : 	(0.050493090853 0.253845909725 0.965925826289)
	I2 : dAve : 	(0.00190440433361 0.00561019425706 0.0163624617374) : omega : 	0.0175372336349 : d : 	(0.083194655468 0.245083551895 0.965925826289)
	I3 : dAve : 	(0.00262038918453 0.00531362362136 0.0163624617374) : omega : 	0.0175372336349 : d : 	(0.114472736462 0.232127746542 0.965925826289)
	I4 : dAve : 	(0.00329153844998 0.00492613541228 0.0163624617374) : omega : 	0.0175372336349 : d : 	(0.143792157198 0.215200171088 0.965925826289)
	I5 : dAve : 	(0.00390636857998 0.00445435966052 0.0163624617374) : omega : 	0.0175372336349 : d : 	(0.170651254257 0.194590461042 0.965925826289)
	I6 : dAve : 	(0.00445435966052 0.00390636857998 0.0163624617374) : omega : 	0.0175372336349 : d : 	(0.194590461042 0.170651254257 0.965925826289)
	I7 : dAve : 	(0.00492613541228 0.00329153844998 0.0163624617374) : omega : 	0.0175372336349 : d : 	(0.215200171088 0.143792157198 0.965925826289)
	I8 : dAve : 	(0.00531362362136 0.00262038918453 0.0163624617374) : omega : 	0.0175372336349 : d : 	(0.232127746542 0.114472736462 0.965925826289)
	I9 : dAve : 	(0.00561019425706 0.00190440433361 0.0163624617374) : omega : 	0.0175372336349 : d : 	(0.245083551895 0.083194655468 0.965925826289)
	I10 : dAve : 	(0.00581077291359 0.00115583459655 0.0163624617374) : omega : 	0.0175372336349 : d : 	(0.253845909725 0.050493090853 0.965925826289)
	I11 : dAve : 	(0.00591192763451 0.000387488209079 0.0163624617374) : omega : 	0.0175372336349 : d : 	(0.25826489366 0.0169275754541 0.965925826289)
	I12 : dAve : 	(0.00591192763451 -0.000387488209079 0.0163624617374) : omega : 	0.0175372336349 : d : 	(0.25826489366 -0.0169275754541 0.965925826289)
	I13 : dAve : 	(0.00581077291359 -0.00115583459655 0.0163624617374) : omega : 	0.0175372336349 : d : 	(0.253845909725 -0.050493090853 0.965925826289)
	I14 : dAve : 	(0.00561019425706 -0.00190440433361 0.0163624617374) : omega : 	0.0175372336349 : d : 	(0.245083551895 -0.083194655468 0.965925826289)
	I15 : dAve : 	(0.00531362362136 -0.00262038918453 0.0163624617374) : omega : 	0.0175372336349 : d : 	(0.232127746542 -0.114472736462 0.965925826289)
	I16 : dAve : 	(0.00492613541228 -0.00329153844998 0.0163624617374) : omega : 	0.0175372336349 : d : 	(0.215200171088 -0.143792157198 0.965925826289)
	I17 : dAve : 	(0.00445435966052 -0.00390636857998 0.0163624617374) : omega : 	0.0175372336349 : d : 	(0.194590461042 -0.170651254257 0.965925826289)
	I18 : dAve : 	(0.00390636857998 -0.00445435966052 0.0163624617374) : omega : 	0.0175372336349 : d : 	(0.170651254257 -0.194590461042 0.965925826289)
	I19 : dAve : 	(0.00329153844998 -0.00492613541228 0.0163624617374) : omega : 	0.0175372336349 : d : 	(0.143792157198 -0.215200171088 0.965925826289)
	I20 : dAve : 	(0.00262038918453 -0.00531362362136 0.0163624617374) : omega : 	0.0175372336349 : d : 	(0.114472736462 -0.232127746542 0.965925826289)
	I21 : dAve : 	(0.00190440433361 -0.00561019425706 0.0163624617374) : omega : 	0.0175372336349 : d : 	(0.083194655468 -0.245083551895 0.965925826289)
	I22 : dAve : 	(0.00115583459655 -0.00581077291359 0.0163624617374) : omega : 	0.0175372336349 : d : 	(0.050493090853 -0.253845909725 0.965925826289)
	I23 : dAve : 	(0.000387488209079 -0.00591192763451 0.0163624617374) : omega : 	0.0175372336349 : d : 	(0.0169275754541 -0.25826489366 0.965925826289)
	I24 : dAve : 	(-0.000387488209079 -0.00591192763451 0.0163624617374) : omega : 	0.0175372336349 : d : 	(-0.0169275754541 -0.25826489366 0.965925826289)
	I25 : dAve : 	(-0.00115583459655 -0.00581077291359 0.0163624617374) : omega : 	0.0175372336349 : d : 	(-0.050493090853 -0.253845909725 0.965925826289)
	I26 : dAve : 	(-0.00190440433361 -0.00561019425706 0.0163624617374) : omega : 	0.0175372336349 : d : 	(-0.083194655468 -0.245083551895 0.965925826289)
	I27 : dAve : 	(-0.00262038918453 -0.00531362362136 0.0163624617374) : omega : 	0.0175372336349 : d : 	(-0.114472736462 -0.232127746542 0.965925826289)
	I28 : dAve : 	(-0.00329153844998 -0.00492613541228 0.0163624617374) : omega : 	0.0175372336349 : d : 	(-0.143792157198 -0.215200171088 0.965925826289)
	I29 : dAve : 	(-0.00390636857998 -0.00445435966052 0.0163624617374) : omega : 	0.0175372336349 : d : 	(-0.170651254257 -0.194590461042 0.965925826289)
	I30 : dAve : 	(-0.00445435966052 -0.00390636857998 0.0163624617374) : omega : 	0.0175372336349 : d : 	(-0.194590461042 -0.170651254257 0.965925826289)
	I31 : dAve : 	(-0.00492613541228 -0.00329153844998 0.0163624617374) : omega : 	0.0175372336349 : d : 	(-0.215200171088 -0.143792157198 0.965925826289)
	I32 : dAve : 	(-0.00531362362136 -0.00262038918453 0.0163624617374) : omega : 	0.0175372336349 : d : 	(-0.232127746542 -0.114472736462 0.965925826289)
	I33 : dAve : 	(-0.00561019425706 -0.00190440433361 0.0163624617374) : omega : 	0.0175372336349 : d : 	(-0.245083551895 -0.083194655468 0.965925826289)
	I34 : dAve : 	(-0.00581077291359 -0.00115583459655 0.0163624617374) : omega : 	0.0175372336349 : d : 	(-0.253845909725 -0.050493090853 0.965925826289)
	I35 : dAve : 	(-0.00591192763451 -0.000387488209079 0.0163624617374) : omega : 	0.0175372336349 : d : 	(-0.25826489366 -0.0169275754541 0.965925826289)
	I36 : dAve : 	(-0.00591192763451 0.000387488209079 0.0163624617374) : omega : 	0.0175372336349 : d : 	(-0.25826489366 0.0169275754541 0.965925826289)
	I37 : dAve : 	(-0.00581077291359 0.00115583459655 0.0163624617374) : omega : 	0.0175372336349 : d : 	(-0.253845909725 0.050493090853 0.965925826289)
	I38 : dAve : 	(-0.00561019425706 0.00190440433361 0.0163624617374) : omega : 	0.0175372336349 : d : 	(-0.245083551895 0.083194655468 0.965925826289)
	I39 : dAve : 	(-0.00531362362136 0.00262038918453 0.0163624617374) : omega : 	0.0175372336349 : d : 	(-0.232127746542 0.114472736462 0.965925826289)
	I40 : dAve : 	(-0.00492613541228 0.00329153844998 0.0163624617374) : omega : 	0.0175372336349 : d : 	(-0.215200171088 0.143792157198 0.965925826289)
	I41 : dAve : 	(-0.00445435966052 0.00390636857998 0.0163624617374) : omega : 	0.0175372336349 : d : 	(-0.194590461042 0.170651254257 0.965925826289)
	I42 : dAve : 	(-0.00390636857998 0.00445435966052 0.0163624617374) : omega : 	0.0175372336349 : d : 	(-0.170651254257 0.194590461042 0.965925826289)
	I43 : dAve : 	(-0.00329153844998 0.00492613541228 0.0163624617374) : omega : 	0.0175372336349 : d : 	(-0.143792157198 0.215200171088 0.965925826289)
	I44 : dAve : 	(-0.00262038918453 0.00531362362136 0.0163624617374) : omega : 	0.0175372336349 : d : 	(-0.114472736462 0.232127746542 0.965925826289)
	I45 : dAve : 	(-0.00190440433361 0.00561019425706 0.0163624617374) : omega : 	0.0175372336349 : d : 	(-0.083194655468 0.245083551895 0.965925826289)
	I46 : dAve : 	(-0.00115583459655 0.00581077291359 0.0163624617374) : omega : 	0.0175372336349 : d : 	(-0.050493090853 0.253845909725 0.965925826289)
	I47 : dAve : 	(-0.000387488209079 0.00591192763451 0.0163624617374) : omega : 	0.0175372336349 : d : 	(-0.0169275754541 0.25826489366 0.965925826289)
	I48 : dAve : 	(0.00223973005487 0.034171677215 0.0327249234749) : omega : 	0.0479126133149 : d : 	(0.0462469961895 0.70559281129 0.707106781187)
	I49 : dAve : 	(0.00668086776241 0.0335869903436 0.0327249234749) : omega : 	0.0479126133149 : d : 	(0.137949689641 0.693519922661 0.707106781187)
	I50 : dAve : 	(0.0110076939702 0.0324276207555 0.0327249234749) : omega : 	0.0479126133149 : d : 	(0.227292025657 0.669580715876 0.707106781187)
	I51 : dAve : 	(0.0151461754823 0.0307134055855 0.0327249234749) : omega : 	0.0479126133149 : d : 	(0.312745332096 0.634184797399 0.707106781187)
	I52 : dAve : 	(0.0190255017326 0.0284736755306 0.0327249234749) : omega : 	0.0479126133149 : d : 	(0.392847479194 0.58793780121 0.707106781187)
	I53 : dAve : 	(0.0225792963734 0.025746752993 0.0327249234749) : omega : 	0.0479126133149 : d : 	(0.466227897004 0.531631026234 0.707106781187)
	I54 : dAve : 	(0.025746752993 0.0225792963734 0.0327249234749) : omega : 	0.0479126133149 : d : 	(0.531631026234 0.466227897004 0.707106781187)
	I55 : dAve : 	(0.0284736755306 0.0190255017326 0.0327249234749) : omega : 	0.0479126133149 : d : 	(0.58793780121 0.392847479194 0.707106781187)
	I56 : dAve : 	(0.0307134055855 0.0151461754823 0.0327249234749) : omega : 	0.0479126133149 : d : 	(0.634184797399 0.312745332096 0.707106781187)
	I57 : dAve : 	(0.0324276207555 0.0110076939702 0.0327249234749) : omega : 	0.0479126133149 : d : 	(0.669580715876 0.227292025657 0.707106781187)
	I58 : dAve : 	(0.0335869903436 0.00668086776241 0.0327249234749) : omega : 	0.0479126133149 : d : 	(0.693519922661 0.137949689641 0.707106781187)
	I59 : dAve : 	(0.034171677215 0.00223973005487 0.0327249234749) : omega : 	0.0479126133149 : d : 	(0.70559281129 0.0462469961895 0.707106781187)
	I60 : dAve : 	(0.034171677215 -0.00223973005487 0.0327249234749) : omega : 	0.0479126133149 : d : 	(0.70559281129 -0.0462469961895 0.707106781187)
	I61 : dAve : 	(0.0335869903436 -0.00668086776241 0.0327249234749) : omega : 	0.0479126133149 : d : 	(0.693519922661 -0.137949689641 0.707106781187)
	I62 : dAve : 	(0.0324276207555 -0.0110076939702 0.0327249234749) : omega : 	0.0479126133149 : d : 	(0.669580715876 -0.227292025657 0.707106781187)
	I63 : dAve : 	(0.0307134055855 -0.0151461754823 0.0327249234749) : omega : 	0.0479126133149 : d : 	(0.634184797399 -0.312745332096 0.707106781187)
	I64 : dAve : 	(0.0284736755306 -0.0190255017326 0.0327249234749) : omega : 	0.0479126133149 : d : 	(0.58793780121 -0.392847479194 0.707106781187)
	I65 : dAve : 	(0.025746752993 -0.0225792963734 0.0327249234749) : omega : 	0.0479126133149 : d : 	(0.531631026234 -0.466227897004 0.707106781187)
	I66 : dAve : 	(0.0225792963734 -0.025746752993 0.0327249234749) : omega : 	0.0479126133149 : d : 	(0.466227897004 -0.531631026234 0.707106781187)
	I67 : dAve : 	(0.0190255017326 -0.0284736755306 0.0327249234749) : omega : 	0.0479126133149 : d : 	(0.392847479194 -0.58793780121 0.707106781187)
	I68 : dAve : 	(0.0151461754823 -0.0307134055855 0.0327249234749) : omega : 	0.0479126133149 : d : 	(0.312745332096 -0.634184797399 0.707106781187)
	I69 : dAve : 	(0.0110076939702 -0.0324276207555 0.0327249234749) : omega : 	0.0479126133149 : d : 	(0.227292025657 -0.669580715876 0.707106781187)
	I70 : dAve : 	(0.00668086776241 -0.0335869903436 0.0327249234749) : omega : 	0.0479126133149 : d : 	(0.137949689641 -0.693519922661 0.707106781187)
	I71 : dAve : 	(0.00223973005487 -0.034171677215 0.0327249234749) : omega : 	0.0479126133149 : d : 	(0.0462469961895 -0.70559281129 0.707106781187)
	I72 : dAve : 	(-0.00223973005487 -0.034171677215 0.0327249234749) : omega : 	0.0479126133149 : d : 	(-0.0462469961895 -0.70559281129 0.707106781187)
	I73 : dAve : 	(-0.00668086776241 -0.0335869903436 0.0327249234749) : omega : 	0.0479126133149 : d : 	(-0.137949689641 -0.693519922661 0.707106781187)
	I74 : dAve : 	(-0.0110076939702 -0.0324276207555 0.0327249234749) : omega : 	0.0479126133149 : d : 	(-0.227292025657 -0.669580715876 0.707106781187)
	I75 : dAve : 	(-0.0151461754823 -0.0307134055855 0.0327249234749) : omega : 	0.0479126133149 : d : 	(-0.312745332096 -0.634184797399 0.707106781187)
	I76 : dAve : 	(-0.0190255017326 -0.0284736755306 0.0327249234749) : omega : 	0.0479126133149 : d : 	(-0.392847479194 -0.58793780121 0.707106781187)
	I77 : dAve : 	(-0.0225792963734 -0.025746752993 0.0327249234749) : omega : 	0.0479126133149 : d : 	(-0.466227897004 -0.531631026234 0.707106781187)
	I78 : dAve : 	(-0.025746752993 -0.0225792963734 0.0327249234749) : omega : 	0.0479126133149 : d : 	(-0.531631026234 -0.466227897004 0.707106781187)
	I79 : dAve : 	(-0.0284736755306 -0.0190255017326 0.0327249234749) : omega : 	0.0479126133149 : d : 	(-0.58793780121 -0.392847479194 0.707106781187)
	I80 : dAve : 	(-0.0307134055855 -0.0151461754823 0.0327249234749) : omega : 	0.0479126133149 : d : 	(-0.634184797399 -0.312745332096 0.707106781187)
	I81 : dAve : 	(-0.0324276207555 -0.0110076939702 0.0327249234749) : omega : 	0.0479126133149 : d : 	(-0.669580715876 -0.227292025657 0.707106781187)
	I82 : dAve : 	(-0.0335869903436 -0.00668086776241 0.0327249234749) : omega : 	0.0479126133149 : d : 	(-0.693519922661 -0.137949689641 0.707106781187)
	I83 : dAve : 	(-0.034171677215 -0.00223973005487 0.0327249234749) : omega : 	0.0479126133149 : d : 	(-0.70559281129 -0.0462469961895 0.707106781187)
	I84 : dAve : 	(-0.034171677215 0.00223973005487 0.0327249234749) : omega : 	0.0479126133149 : d : 	(-0.70559281129 0.0462469961895 0.707106781187)
	I85 : dAve : 	(-0.0335869903436 0.00668086776241 0.0327249234749) : omega : 	0.0479126133149 : d : 	(-0.693519922661 0.137949689641 0.707106781187)
	I86 : dAve : 	(-0.0324276207555 0.0110076939702 0.0327249234749) : omega : 	0.0479126133149 : d : 	(-0.669580715876 0.227292025657 0.707106781187)
	I87 : dAve : 	(-0.0307134055855 0.0151461754823 0.0327249234749) : omega : 	0.0479126133149 : d : 	(-0.634184797399 0.312745332096 0.707106781187)
	I88 : dAve : 	(-0.0284736755306 0.0190255017326 0.0327249234749) : omega : 	0.0479126133149 : d : 	(-0.58793780121 0.392847479194 0.707106781187)
	I89 : dAve : 	(-0.025746752993 0.0225792963734 0.0327249234749) : omega : 	0.0479126133149 : d : 	(-0.531631026234 0.466227897004 0.707106781187)
	I90 : dAve : 	(-0.0225792963734 0.025746752993 0.0327249234749) : omega : 	0.0479126133149 : d : 	(-0.466227897004 0.531631026234 0.707106781187)
	I91 : dAve : 	(-0.0190255017326 0.0284736755306 0.0327249234749) : omega : 	0.0479126133149 : d : 	(-0.392847479194 0.58793780121 0.707106781187)
	I92 : dAve : 	(-0.0151461754823 0.0307134055855 0.0327249234749) : omega : 	0.0479126133149 : d : 	(-0.312745332096 0.634184797399 0.707106781187)
	I93 : dAve : 	(-0.0110076939702 0.0324276207555 0.0327249234749) : omega : 	0.0479126133149 : d : 	(-0.227292025657 0.669580715876 0.707106781187)
	I94 : dAve : 	(-0.00668086776241 0.0335869903436 0.0327249234749) : omega : 	0.0479126133149 : d : 	(-0.137949689641 0.693519922661 0.707106781187)
	I95 : dAve : 	(-0.00223973005487 0.034171677215 0.0327249234749) : omega : 	0.0479126133149 : d : 	(-0.0462469961895 0.70559281129 0.707106781187)
	I96 : dAve : 	(0.00409197190067 0.0624314267954 0.0163624617374) : omega : 	0.0654498469498 : d : 	(0.0631745716435 0.963857704949 0.258819045103)
	I97 : dAve : 	(0.0122059009283 0.0613632077737 0.0163624617374) : omega : 	0.0654498469498 : d : 	(0.188442780494 0.947365832386 0.258819045103)
	I98 : dAve : 	(0.0201109836069 0.0592450472539 0.0163624617374) : omega : 	0.0654498469498 : d : 	(0.310486681125 0.914664267771 0.258819045103)
	I99 : dAve : 	(0.0276719617802 0.0561131875497 0.0163624617374) : omega : 	0.0654498469498 : d : 	(0.427218068558 0.866312543941 0.258819045103)
	I100 : dAve : 	(0.0347594650153 0.052021215649 0.0163624617374) : omega : 	0.0654498469498 : d : 	(0.536639636391 0.803137972298 0.258819045103)
	I101 : dAve : 	(0.0412522241668 0.0470391463256 0.0163624617374) : omega : 	0.0654498469498 : d : 	(0.636879151261 0.726221487276 0.258819045103)
	I102 : dAve : 	(0.0470391463256 0.0412522241668 0.0163624617374) : omega : 	0.0654498469498 : d : 	(0.726221487276 0.636879151261 0.258819045103)
	I103 : dAve : 	(0.052021215649 0.0347594650153 0.0163624617374) : omega : 	0.0654498469498 : d : 	(0.803137972298 0.536639636391 0.258819045103)
	I104 : dAve : 	(0.0561131875497 0.0276719617802 0.0163624617374) : omega : 	0.0654498469498 : d : 	(0.866312543941 0.427218068558 0.258819045103)
	I105 : dAve : 	(0.0592450472539 0.0201109836069 0.0163624617374) : omega : 	0.0654498469498 : d : 	(0.914664267771 0.310486681125 0.258819045103)
	I106 : dAve : 	(0.0613632077737 0.0122059009283 0.0163624617374) : omega : 	0.0654498469498 : d : 	(0.947365832386 0.188442780494 0.258819045103)
	I107 : dAve : 	(0.0624314267954 0.00409197190067 0.0163624617374) : omega : 	0.0654498469498 : d : 	(0.963857704949 0.0631745716435 0.258819045103)
	I108 : dAve : 	(0.0624314267954 -0.00409197190067 0.0163624617374) : omega : 	0.0654498469498 : d : 	(0.963857704949 -0.0631745716435 0.258819045103)
	I109 : dAve : 	(0.0613632077737 -0.0122059009283 0.0163624617374) : omega : 	0.0654498469498 : d : 	(0.947365832386 -0.188442780494 0.258819045103)
	I110 : dAve : 	(0.0592450472539 -0.0201109836069 0.0163624617374) : omega : 	0.0654498469498 : d : 	(0.914664267771 -0.310486681125 0.258819045103)
	I111 : dAve : 	(0.0561131875497 -0.0276719617802 0.0163624617374) : omega : 	0.0654498469498 : d : 	(0.866312543941 -0.427218068558 0.258819045103)
	I112 : dAve : 	(0.052021215649 -0.0347594650153 0.0163624617374) : omega : 	0.0654498469498 : d : 	(0.803137972298 -0.536639636391 0.258819045103)
	I113 : dAve : 	(0.0470391463256 -0.0412522241668 0.0163624617374) : omega : 	0.0654498469498 : d : 	(0.726221487276 -0.636879151261 0.258819045103)
	I114 : dAve : 	(0.0412522241668 -0.0470391463256 0.0163624617374) : omega : 	0.0654498469498 : d : 	(0.636879151261 -0.726221487276 0.258819045103)
	I115 : dAve : 	(0.0347594650153 -0.052021215649 0.0163624617374) : omega : 	0.0654498469498 : d : 	(0.536639636391 -0.803137972298 0.258819045103)
	I116 : dAve : 	(0.0276719617802 -0.0561131875497 0.0163624617374) : omega : 	0.0654498469498 : d : 	(0.427218068558 -0.866312543941 0.258819045103)
	I117 : dAve : 	(0.0201109836069 -0.0592450472539 0.0163624617374) : omega : 	0.0654498469498 : d : 	(0.310486681125 -0.914664267771 0.258819045103)
	I118 : dAve : 	(0.0122059009283 -0.0613632077737 0.0163624617374) : omega : 	0.0654498469498 : d : 	(0.188442780494 -0.947365832386 0.258819045103)
	I119 : dAve : 	(0.00409197190067 -0.0624314267954 0.0163624617374) : omega : 	0.0654498469498 : d : 	(0.0631745716435 -0.963857704949 0.258819045103)
	I120 : dAve : 	(-0.00409197190067 -0.0624314267954 0.0163624617374) : omega : 	0.0654498469498 : d : 	(-0.0631745716435 -0.963857704949 0.258819045103)
	I121 : dAve : 	(-0.0122059009283 -0.0613632077737 0.0163624617374) : omega : 	0.0654498469498 : d : 	(-0.188442780494 -0.947365832386 0.258819045103)
	I122 : dAve : 	(-0.0201109836069 -0.0592450472539 0.0163624617374) : omega : 	0.0654498469498 : d : 	(-0.310486681125 -0.914664267771 0.258819045103)
	I123 : dAve : 	(-0.0276719617802 -0.0561131875497 0.0163624617374) : omega : 	0.0654498469498 : d : 	(-0.427218068558 -0.866312543941 0.258819045103)
	I124 : dAve : 	(-0.0347594650153 -0.052021215649 0.0163624617374) : omega : 	0.0654498469498 : d : 	(-0.536639636391 -0.803137972298 0.258819045103)
	I125 : dAve : 	(-0.0412522241668 -0.0470391463256 0.0163624617374) : omega : 	0.0654498469498 : d : 	(-0.636879151261 -0.726221487276 0.258819045103)
	I126 : dAve : 	(-0.0470391463256 -0.0412522241668 0.0163624617374) : omega : 	0.0654498469498 : d : 	(-0.726221487276 -0.636879151261 0.258819045103)
	I127 : dAve : 	(-0.052021215649 -0.0347594650153 0.0163624617374) : omega : 	0.0654498469498 : d : 	(-0.803137972298 -0.536639636391 0.258819045103)
	I128 : dAve : 	(-0.0561131875497 -0.0276719617802 0.0163624617374) : omega : 	0.0654498469498 : d : 	(-0.866312543941 -0.427218068558 0.258819045103)
	I129 : dAve : 	(-0.0592450472539 -0.0201109836069 0.0163624617374) : omega : 	0.0654498469498 : d : 	(-0.914664267771 -0.310486681125 0.258819045103)
	I130 : dAve : 	(-0.0613632077737 -0.0122059009283 0.0163624617374) : omega : 	0.0654498469498 : d : 	(-0.947365832386 -0.188442780494 0.258819045103)
	I131 : dAve : 	(-0.0624314267954 -0.00409197190067 0.0163624617374) : omega : 	0.0654498469498 : d : 	(-0.963857704949 -0.0631745716435 0.258819045103)
	I132 : dAve : 	(-0.0624314267954 0.00409197190067 0.0163624617374) : omega : 	0.0654498469498 : d : 	(-0.963857704949 0.0631745716435 0.258819045103)
	I133 : dAve : 	(-0.0613632077737 0.0122059009283 0.0163624617374) : omega : 	0.0654498469498 : d : 	(-0.947365832386 0.188442780494 0.258819045103)
	I134 : dAve : 	(-0.0592450472539 0.0201109836069 0.0163624617374) : omega : 	0.0654498469498 : d : 	(-0.914664267771 0.310486681125 0.258819045103)
	I135 : dAve : 	(-0.0561131875497 0.0276719617802 0.0163624617374) : omega : 	0.0654498469498 : d : 	(-0.866312543941 0.427218068558 0.258819045103)
	I136 : dAve : 	(-0.052021215649 0.0347594650153 0.0163624617374) : omega : 	0.0654498469498 : d : 	(-0.803137972298 0.536639636391 0.258819045103)
	I137 : dAve : 	(-0.0470391463256 0.0412522241668 0.0163624617374) : omega : 	0.0654498469498 : d : 	(-0.726221487276 0.636879151261 0.258819045103)
	I138 : dAve : 	(-0.0412522241668 0.0470391463256 0.0163624617374) : omega : 	0.0654498469498 : d : 	(-0.636879151261 0.726221487276 0.258819045103)
	I139 : dAve : 	(-0.0347594650153 0.052021215649 0.0163624617374) : omega : 	0.0654498469498 : d : 	(-0.536639636391 0.803137972298 0.258819045103)
	I140 : dAve : 	(-0.0276719617802 0.0561131875497 0.0163624617374) : omega : 	0.0654498469498 : d : 	(-0.427218068558 0.866312543941 0.258819045103)
	I141 : dAve : 	(-0.0201109836069 0.0592450472539 0.0163624617374) : omega : 	0.0654498469498 : d : 	(-0.310486681125 0.914664267771 0.258819045103)
	I142 : dAve : 	(-0.0122059009283 0.0613632077737 0.0163624617374) : omega : 	0.0654498469498 : d : 	(-0.188442780494 0.947365832386 0.258819045103)
	I143 : dAve : 	(-0.00409197190067 0.0624314267954 0.0163624617374) : omega : 	0.0654498469498 : d : 	(-0.0631745716435 0.963857704949 0.258819045103)
	I144 : dAve : 	(0.00409197190067 0.0624314267954 -0.0163624617374) : omega : 	0.0654498469498 : d : 	(0.0631745716435 0.963857704949 -0.258819045103)
	I145 : dAve : 	(0.0122059009283 0.0613632077737 -0.0163624617374) : omega : 	0.0654498469498 : d : 	(0.188442780494 0.947365832386 -0.258819045103)
	I146 : dAve : 	(0.0201109836069 0.0592450472539 -0.0163624617374) : omega : 	0.0654498469498 : d : 	(0.310486681125 0.914664267771 -0.258819045103)
	I147 : dAve : 	(0.0276719617802 0.0561131875497 -0.0163624617374) : omega : 	0.0654498469498 : d : 	(0.427218068558 0.866312543941 -0.258819045103)
	I148 : dAve : 	(0.0347594650153 0.052021215649 -0.0163624617374) : omega : 	0.0654498469498 : d : 	(0.536639636391 0.803137972298 -0.258819045103)
	I149 : dAve : 	(0.0412522241668 0.0470391463256 -0.0163624617374) : omega : 	0.0654498469498 : d : 	(0.636879151261 0.726221487276 -0.258819045103)
	I150 : dAve : 	(0.0470391463256 0.0412522241668 -0.0163624617374) : omega : 	0.0654498469498 : d : 	(0.726221487276 0.636879151261 -0.258819045103)
	I151 : dAve : 	(0.052021215649 0.0347594650153 -0.0163624617374) : omega : 	0.0654498469498 : d : 	(0.803137972298 0.536639636391 -0.258819045103)
	I152 : dAve : 	(0.0561131875497 0.0276719617802 -0.0163624617374) : omega : 	0.0654498469498 : d : 	(0.866312543941 0.427218068558 -0.258819045103)
	I153 : dAve : 	(0.0592450472539 0.0201109836069 -0.0163624617374) : omega : 	0.0654498469498 : d : 	(0.914664267771 0.310486681125 -0.258819045103)
	I154 : dAve : 	(0.0613632077737 0.0122059009283 -0.0163624617374) : omega : 	0.0654498469498 : d : 	(0.947365832386 0.188442780494 -0.258819045103)
	I155 : dAve : 	(0.0624314267954 0.00409197190067 -0.0163624617374) : omega : 	0.0654498469498 : d : 	(0.963857704949 0.0631745716435 -0.258819045103)
	I156 : dAve : 	(0.0624314267954 -0.00409197190067 -0.0163624617374) : omega : 	0.0654498469498 : d : 	(0.963857704949 -0.0631745716435 -0.258819045103)
	I157 : dAve : 	(0.0613632077737 -0.0122059009283 -0.0163624617374) : omega : 	0.0654498469498 : d : 	(0.947365832386 -0.188442780494 -0.258819045103)
	I158 : dAve : 	(0.0592450472539 -0.0201109836069 -0.0163624617374) : omega : 	0.0654498469498 : d : 	(0.914664267771 -0.310486681125 -0.258819045103)
	I159 : dAve : 	(0.0561131875497 -0.0276719617802 -0.0163624617374) : omega : 	0.0654498469498 : d : 	(0.866312543941 -0.427218068558 -0.258819045103)
	I160 : dAve : 	(0.052021215649 -0.0347594650153 -0.0163624617374) : omega : 	0.0654498469498 : d : 	(0.803137972298 -0.536639636391 -0.258819045103)
	I161 : dAve : 	(0.0470391463256 -0.0412522241668 -0.0163624617374) : omega : 	0.0654498469498 : d : 	(0.726221487276 -0.636879151261 -0.258819045103)
	I162 : dAve : 	(0.0412522241668 -0.0470391463256 -0.0163624617374) : omega : 	0.0654498469498 : d : 	(0.636879151261 -0.726221487276 -0.258819045103)
	I163 : dAve : 	(0.0347594650153 -0.052021215649 -0.0163624617374) : omega : 	0.0654498469498 : d : 	(0.536639636391 -0.803137972298 -0.258819045103)
	I164 : dAve : 	(0.0276719617802 -0.0561131875497 -0.0163624617374) : omega : 	0.0654498469498 : d : 	(0.427218068558 -0.866312543941 -0.258819045103)
	I165 : dAve : 	(0.0201109836069 -0.0592450472539 -0.0163624617374) : omega : 	0.0654498469498 : d : 	(0.310486681125 -0.914664267771 -0.258819045103)
	I166 : dAve : 	(0.0122059009283 -0.0613632077737 -0.0163624617374) : omega : 	0.0654498469498 : d : 	(0.188442780494 -0.947365832386 -0.258819045103)
	I167 : dAve : 	(0.00409197190067 -0.0624314267954 -0.0163624617374) : omega : 	0.0654498469498 : d : 	(0.0631745716435 -0.963857704949 -0.258819045103)
	I168 : dAve : 	(-0.00409197190067 -0.0624314267954 -0.0163624617374) : omega : 	0.0654498469498 : d : 	(-0.0631745716435 -0.963857704949 -0.258819045103)
	I169 : dAve : 	(-0.0122059009283 -0.0613632077737 -0.0163624617374) : omega : 	0.0654498469498 : d : 	(-0.188442780494 -0.947365832386 -0.258819045103)
	I170 : dAve : 	(-0.0201109836069 -0.0592450472539 -0.0163624617374) : omega : 	0.0654498469498 : d : 	(-0.310486681125 -0.914664267771 -0.258819045103)
	I171 : dAve : 	(-0.0276719617802 -0.0561131875497 -0.0163624617374) : omega : 	0.0654498469498 : d : 	(-0.427218068558 -0.866312543941 -0.258819045103)
	I172 : dAve : 	(-0.0347594650153 -0.052021215649 -0.0163624617374) : omega : 	0.0654498469498 : d : 	(-0.536639636391 -0.803137972298 -0.258819045103)
	I173 : dAve : 	(-0.0412522241668 -0.0470391463256 -0.0163624617374) : omega : 	0.0654498469498 : d : 	(-0.636879151261 -0.726221487276 -0.258819045103)
	I174 : dAve : 	(-0.0470391463256 -0.0412522241668 -0.0163624617374) : omega : 	0.0654498469498 : d : 	(-0.726221487276 -0.636879151261 -0.258819045103)
	I175 : dAve : 	(-0.052021215649 -0.0347594650153 -0.0163624617374) : omega : 	0.0654498469498 : d : 	(-0.803137972298 -0.536639636391 -0.258819045103)
	I176 : dAve : 	(-0.0561131875497 -0.0276719617802 -0.0163624617374) : omega : 	0.0654498469498 : d : 	(-0.866312543941 -0.427218068558 -0.258819045103)
	I177 : dAve : 	(-0.0592450472539 -0.0201109836069 -0.0163624617374) : omega : 	0.0654498469498 : d : 	(-0.914664267771 -0.310486681125 -0.258819045103)
	I178 : dAve : 	(-0.0613632077737 -0.0122059009283 -0.0163624617374) : omega : 	0.0654498469498 : d : 	(-0.947365832386 -0.188442780494 -0.258819045103)
	I179 : dAve : 	(-0.0624314267954 -0.00409197190067 -0.0163624617374) : omega : 	0.0654498469498 : d : 	(-0.963857704949 -0.0631745716435 -0.258819045103)
	I180 : dAve : 	(-0.0624314267954 0.00409197190067 -0.0163624617374) : omega : 	0.0654498469498 : d : 	(-0.963857704949 0.0631745716435 -0.258819045103)
	I181 : dAve : 	(-0.0613632077737 0.0122059009283 -0.0163624617374) : omega : 	0.0654498469498 : d : 	(-0.947365832386 0.188442780494 -0.258819045103)
	I182 : dAve : 	(-0.0592450472539 0.0201109836069 -0.0163624617374) : omega : 	0.0654498469498 : d : 	(-0.914664267771 0.310486681125 -0.258819045103)
	I183 : dAve : 	(-0.0561131875497 0.0276719617802 -0.0163624617374) : omega : 	0.0654498469498 : d : 	(-0.866312543941 0.427218068558 -0.258819045103)
	I184 : dAve : 	(-0.052021215649 0.0347594650153 -0.0163624617374) : omega : 	0.0654498469498 : d : 	(-0.803137972298 0.536639636391 -0.258819045103)
	I185 : dAve : 	(-0.0470391463256 0.0412522241668 -0.0163624617374) : omega : 	0.0654498469498 : d : 	(-0.726221487276 0.636879151261 -0.258819045103)
	I186 : dAve : 	(-0.0412522241668 0.0470391463256 -0.0163624617374) : omega : 	0.0654498469498 : d : 	(-0.636879151261 0.726221487276 -0.258819045103)
	I187 : dAve : 	(-0.0347594650153 0.052021215649 -0.0163624617374) : omega : 	0.0654498469498 : d : 	(-0.536639636391 0.803137972298 -0.258819045103)
	I188 : dAve : 	(-0.0276719617802 0.0561131875497 -0.0163624617374) : omega : 	0.0654498469498 : d : 	(-0.427218068558 0.866312543941 -0.258819045103)
	I189 : dAve : 	(-0.0201109836069 0.0592450472539 -0.0163624617374) : omega : 	0.0654498469498 : d : 	(-0.310486681125 0.914664267771 -0.258819045103)
	I190 : dAve : 	(-0.0122059009283 0.0613632077737 -0.0163624617374) : omega : 	0.0654498469498 : d : 	(-0.188442780494 0.947365832386 -0.258819045103)
	I191 : dAve : 	(-0.00409197190067 0.0624314267954 -0.0163624617374) : omega : 	0.0654498469498 : d : 	(-0.0631745716435 0.963857704949 -0.258819045103)
	I192 : dAve : 	(0.00223973005487 0.034171677215 -0.0327249234749) : omega : 	0.0479126133149 : d : 	(0.0462469961895 0.70559281129 -0.707106781187)
	I193 : dAve : 	(0.00668086776241 0.0335869903436 -0.0327249234749) : omega : 	0.0479126133149 : d : 	(0.137949689641 0.693519922661 -0.707106781187)
	I194 : dAve : 	(0.0110076939702 0.0324276207555 -0.0327249234749) : omega : 	0.0479126133149 : d : 	(0.227292025657 0.669580715876 -0.707106781187)
	I195 : dAve : 	(0.0151461754823 0.0307134055855 -0.0327249234749) : omega : 	0.0479126133149 : d : 	(0.312745332096 0.634184797399 -0.707106781187)
	I196 : dAve : 	(0.0190255017326 0.0284736755306 -0.0327249234749) : omega : 	0.0479126133149 : d : 	(0.392847479194 0.58793780121 -0.707106781187)
	I197 : dAve : 	(0.0225792963734 0.025746752993 -0.0327249234749) : omega : 	0.0479126133149 : d : 	(0.466227897004 0.531631026234 -0.707106781187)
	I198 : dAve : 	(0.025746752993 0.0225792963734 -0.0327249234749) : omega : 	0.0479126133149 : d : 	(0.531631026234 0.466227897004 -0.707106781187)
	I199 : dAve : 	(0.0284736755306 0.0190255017326 -0.0327249234749) : omega : 	0.0479126133149 : d : 	(0.58793780121 0.392847479194 -0.707106781187)
	I200 : dAve : 	(0.0307134055855 0.0151461754823 -0.0327249234749) : omega : 	0.0479126133149 : d : 	(0.634184797399 0.312745332096 -0.707106781187)
	I201 : dAve : 	(0.0324276207555 0.0110076939702 -0.0327249234749) : omega : 	0.0479126133149 : d : 	(0.669580715876 0.227292025657 -0.707106781187)
	I202 : dAve : 	(0.0335869903436 0.00668086776241 -0.0327249234749) : omega : 	0.0479126133149 : d : 	(0.693519922661 0.137949689641 -0.707106781187)
	I203 : dAve : 	(0.034171677215 0.00223973005487 -0.0327249234749) : omega : 	0.0479126133149 : d : 	(0.70559281129 0.0462469961895 -0.707106781187)
	I204 : dAve : 	(0.034171677215 -0.00223973005487 -0.0327249234749) : omega : 	0.0479126133149 : d : 	(0.70559281129 -0.0462469961895 -0.707106781187)
	I205 : dAve : 	(0.0335869903436 -0.00668086776241 -0.0327249234749) : omega : 	0.0479126133149 : d : 	(0.693519922661 -0.137949689641 -0.707106781187)
	I206 : dAve : 	(0.0324276207555 -0.0110076939702 -0.0327249234749) : omega : 	0.0479126133149 : d : 	(0.669580715876 -0.227292025657 -0.707106781187)
	I207 : dAve : 	(0.0307134055855 -0.0151461754823 -0.0327249234749) : omega : 	0.0479126133149 : d : 	(0.634184797399 -0.312745332096 -0.707106781187)
	I208 : dAve : 	(0.0284736755306 -0.0190255017326 -0.0327249234749) : omega : 	0.0479126133149 : d : 	(0.58793780121 -0.392847479194 -0.707106781187)
	I209 : dAve : 	(0.025746752993 -0.0225792963734 -0.0327249234749) : omega : 	0.0479126133149 : d : 	(0.531631026234 -0.466227897004 -0.707106781187)
	I210 : dAve : 	(0.0225792963734 -0.025746752993 -0.0327249234749) : omega : 	0.0479126133149 : d : 	(0.466227897004 -0.531631026234 -0.707106781187)
	I211 : dAve : 	(0.0190255017326 -0.0284736755306 -0.0327249234749) : omega : 	0.0479126133149 : d : 	(0.392847479194 -0.58793780121 -0.707106781187)
	I212 : dAve : 	(0.0151461754823 -0.0307134055855 -0.0327249234749) : omega : 	0.0479126133149 : d : 	(0.312745332096 -0.634184797399 -0.707106781187)
	I213 : dAve : 	(0.0110076939702 -0.0324276207555 -0.0327249234749) : omega : 	0.0479126133149 : d : 	(0.227292025657 -0.669580715876 -0.707106781187)
	I214 : dAve : 	(0.00668086776241 -0.0335869903436 -0.0327249234749) : omega : 	0.0479126133149 : d : 	(0.137949689641 -0.693519922661 -0.707106781187)
	I215 : dAve : 	(0.00223973005487 -0.034171677215 -0.0327249234749) : omega : 	0.0479126133149 : d : 	(0.0462469961895 -0.70559281129 -0.707106781187)
	I216 : dAve : 	(-0.00223973005487 -0.034171677215 -0.0327249234749) : omega : 	0.0479126133149 : d : 	(-0.0462469961895 -0.70559281129 -0.707106781187)
	I217 : dAve : 	(-0.00668086776241 -0.0335869903436 -0.0327249234749) : omega : 	0.0479126133149 : d : 	(-0.137949689641 -0.693519922661 -0.707106781187)
	I218 : dAve : 	(-0.0110076939702 -0.0324276207555 -0.0327249234749) : omega : 	0.0479126133149 : d : 	(-0.227292025657 -0.669580715876 -0.707106781187)
	I219 : dAve : 	(-0.0151461754823 -0.0307134055855 -0.0327249234749) : omega : 	0.0479126133149 : d : 	(-0.312745332096 -0.634184797399 -0.707106781187)
	I220 : dAve : 	(-0.0190255017326 -0.0284736755306 -0.0327249234749) : omega : 	0.0479126133149 : d : 	(-0.392847479194 -0.58793780121 -0.707106781187)
	I221 : dAve : 	(-0.0225792963734 -0.025746752993 -0.0327249234749) : omega : 	0.0479126133149 : d : 	(-0.466227897004 -0.531631026234 -0.707106781187)
	I222 : dAve : 	(-0.025746752993 -0.0225792963734 -0.0327249234749) : omega : 	0.0479126133149 : d : 	(-0.531631026234 -0.466227897004 -0.707106781187)
	I223 : dAve : 	(-0.0284736755306 -0.0190255017326 -0.0327249234749) : omega : 	0.0479126133149 : d : 	(-0.58793780121 -0.392847479194 -0.707106781187)
	I224 : dAve : 	(-0.0307134055855 -0.0151461754823 -0.0327249234749) : omega : 	0.0479126133149 : d : 	(-0.634184797399 -0.312745332096 -0.707106781187)
	I225 : dAve : 	(-0.0324276207555 -0.0110076939702 -0.0327249234749) : omega : 	0.0479126133149 : d : 	(-0.669580715876 -0.227292025657 -0.707106781187)
	I226 : dAve : 	(-0.0335869903436 -0.00668086776241 -0.0327249234749) : omega : 	0.0479126133149 : d : 	(-0.693519922661 -0.137949689641 -0.707106781187)
	I227 : dAve : 	(-0.034171677215 -0.00223973005487 -0.0327249234749) : omega : 	0.0479126133149 : d : 	(-0.70559281129 -0.0462469961895 -0.707106781187)
	I228 : dAve : 	(-0.034171677215 0.00223973005487 -0.0327249234749) : omega : 	0.0479126133149 : d : 	(-0.70559281129 0.0462469961895 -0.707106781187)
	I229 : dAve : 	(-0.0335869903436 0.00668086776241 -0.0327249234749) : omega : 	0.0479126133149 : d : 	(-0.693519922661 0.137949689641 -0.707106781187)
	I230 : dAve : 	(-0.0324276207555 0.0110076939702 -0.0327249234749) : omega : 	0.0479126133149 : d : 	(-0.669580715876 0.227292025657 -0.707106781187)
	I231 : dAve : 	(-0.0307134055855 0.0151461754823 -0.0327249234749) : omega : 	0.0479126133149 : d : 	(-0.634184797399 0.312745332096 -0.707106781187)
	I232 : dAve : 	(-0.0284736755306 0.0190255017326 -0.0327249234749) : omega : 	0.0479126133149 : d : 	(-0.58793780121 0.392847479194 -0.707106781187)
	I233 : dAve : 	(-0.025746752993 0.0225792963734 -0.0327249234749) : omega : 	0.0479126133149 : d : 	(-0.531631026234 0.466227897004 -0.707106781187)
	I234 : dAve : 	(-0.0225792963734 0.025746752993 -0.0327249234749) : omega : 	0.0479126133149 : d : 	(-0.466227897004 0.531631026234 -0.707106781187)
	I235 : dAve : 	(-0.0190255017326 0.0284736755306 -0.0327249234749) : omega : 	0.0479126133149 : d : 	(-0.392847479194 0.58793780121 -0.707106781187)
	I236 : dAve : 	(-0.0151461754823 0.0307134055855 -0.0327249234749) : omega : 	0.0479126133149 : d : 	(-0.312745332096 0.634184797399 -0.707106781187)
	I237 : dAve : 	(-0.0110076939702 0.0324276207555 -0.0327249234749) : omega : 	0.0479126133149 : d : 	(-0.227292025657 0.669580715876 -0.707106781187)
	I238 : dAve : 	(-0.00668086776241 0.0335869903436 -0.0327249234749) : omega : 	0.0479126133149 : d : 	(-0.137949689641 0.693519922661 -0.707106781187)
	I239 : dAve : 	(-0.00223973005487 0.034171677215 -0.0327249234749) : omega : 	0.0479126133149 : d : 	(-0.0462469961895 0.70559281129 -0.707106781187)
	I240 : dAve : 	(0.000387488209079 0.00591192763451 -0.0163624617374) : omega : 	0.0175372336349 : d : 	(0.0169275754541 0.25826489366 -0.965925826289)
	I241 : dAve : 	(0.00115583459655 0.00581077291359 -0.0163624617374) : omega : 	0.0175372336349 : d : 	(0.050493090853 0.253845909725 -0.965925826289)
	I242 : dAve : 	(0.00190440433361 0.00561019425706 -0.0163624617374) : omega : 	0.0175372336349 : d : 	(0.083194655468 0.245083551895 -0.965925826289)
	I243 : dAve : 	(0.00262038918453 0.00531362362136 -0.0163624617374) : omega : 	0.0175372336349 : d : 	(0.114472736462 0.232127746542 -0.965925826289)
	I244 : dAve : 	(0.00329153844998 0.00492613541228 -0.0163624617374) : omega : 	0.0175372336349 : d : 	(0.143792157198 0.215200171088 -0.965925826289)
	I245 : dAve : 	(0.00390636857998 0.00445435966052 -0.0163624617374) : omega : 	0.0175372336349 : d : 	(0.170651254257 0.194590461042 -0.965925826289)
	I246 : dAve : 	(0.00445435966052 0.00390636857998 -0.0163624617374) : omega : 	0.0175372336349 : d : 	(0.194590461042 0.170651254257 -0.965925826289)
	I247 : dAve : 	(0.00492613541228 0.00329153844998 -0.0163624617374) : omega : 	0.0175372336349 : d : 	(0.215200171088 0.143792157198 -0.965925826289)
	I248 : dAve : 	(0.00531362362136 0.00262038918453 -0.0163624617374) : omega : 	0.0175372336349 : d : 	(0.232127746542 0.114472736462 -0.965925826289)
	I249 : dAve : 	(0.00561019425706 0.00190440433361 -0.0163624617374) : omega : 	0.0175372336349 : d : 	(0.245083551895 0.083194655468 -0.965925826289)
	I250 : dAve : 	(0.00581077291359 0.00115583459655 -0.0163624617374) : omega : 	0.0175372336349 : d : 	(0.253845909725 0.050493090853 -0.965925826289)
	I251 : dAve : 	(0.00591192763451 0.000387488209079 -0.0163624617374) : omega : 	0.0175372336349 : d : 	(0.25826489366 0.0169275754541 -0.965925826289)
	I252 : dAve : 	(0.00591192763451 -0.000387488209079 -0.0163624617374) : omega : 	0.0175372336349 : d : 	(0.25826489366 -0.0169275754541 -0.965925826289)
	I253 : dAve : 	(0.00581077291359 -0.00115583459655 -0.0163624617374) : omega : 	0.0175372336349 : d : 	(0.253845909725 -0.050493090853 -0.965925826289)
	I254 : dAve : 	(0.00561019425706 -0.00190440433361 -0.0163624617374) : omega : 	0.0175372336349 : d : 	(0.245083551895 -0.083194655468 -0.965925826289)
	I255 : dAve : 	(0.00531362362136 -0.00262038918453 -0.0163624617374) : omega : 	0.0175372336349 : d : 	(0.232127746542 -0.114472736462 -0.965925826289)
	I256 : dAve : 	(0.00492613541228 -0.00329153844998 -0.0163624617374) : omega : 	0.0175372336349 : d : 	(0.215200171088 -0.143792157198 -0.965925826289)
	I257 : dAve : 	(0.00445435966052 -0.00390636857998 -0.0163624617374) : omega : 	0.0175372336349 : d : 	(0.194590461042 -0.170651254257 -0.965925826289)
	I258 : dAve : 	(0.00390636857998 -0.00445435966052 -0.0163624617374) : omega : 	0.0175372336349 : d : 	(0.170651254257 -0.194590461042 -0.965925826289)
	I259 : dAve : 	(0.00329153844998 -0.00492613541228 -0.0163624617374) : omega : 	0.0175372336349 : d : 	(0.143792157198 -0.215200171088 -0.965925826289)
	I260 : dAve : 	(0.00262038918453 -0.00531362362136 -0.0163624617374) : omega : 	0.0175372336349 : d : 	(0.114472736462 -0.232127746542 -0.965925826289)
	I261 : dAve : 	(0.00190440433361 -0.00561019425706 -0.0163624617374) : omega : 	0.0175372336349 : d : 	(0.083194655468 -0.245083551895 -0.965925826289)
	I262 : dAve : 	(0.00115583459655 -0.00581077291359 -0.0163624617374) : omega : 	0.0175372336349 : d : 	(0.050493090853 -0.253845909725 -0.965925826289)
	I263 : dAve : 	(0.000387488209079 -0.00591192763451 -0.0163624617374) : omega : 	0.0175372336349 : d : 	(0.0169275754541 -0.25826489366 -0.965925826289)
	I264 : dAve : 	(-0.000387488209079 -0.00591192763451 -0.0163624617374) : omega : 	0.0175372336349 : d : 	(-0.0169275754541 -0.25826489366 -0.965925826289)
	I265 : dAve : 	(-0.00115583459655 -0.00581077291359 -0.0163624617374) : omega : 	0.0175372336349 : d : 	(-0.050493090853 -0.253845909725 -0.965925826289)
	I266 : dAve : 	(-0.00190440433361 -0.00561019425706 -0.0163624617374) : omega : 	0.0175372336349 : d : 	(-0.083194655468 -0.245083551895 -0.965925826289)
	I267 : dAve : 	(-0.00262038918453 -0.00531362362136 -0.0163624617374) : omega : 	0.0175372336349 : d : 	(-0.114472736462 -0.232127746542 -0.965925826289)
	I268 : dAve : 	(-0.00329153844998 -0.00492613541228 -0.0163624617374) : omega : 	0.0175372336349 : d : 	(-0.143792157198 -0.215200171088 -0.965925826289)
	I269 : dAve : 	(-0.00390636857998 -0.00445435966052 -0.0163624617374) : omega : 	0.0175372336349 : d : 	(-0.170651254257 -0.194590461042 -0.965925826289)
	I270 : dAve : 	(-0.00445435966052 -0.00390636857998 -0.0163624617374) : omega : 	0.0175372336349 : d : 	(-0.194590461042 -0.170651254257 -0.965925826289)
	I271 : dAve : 	(-0.00492613541228 -0.00329153844998 -0.0163624617374) : omega : 	0.0175372336349 : d : 	(-0.215200171088 -0.143792157198 -0.965925826289)
	I272 : dAve : 	(-0.00531362362136 -0.00262038918453 -0.0163624617374) : omega : 	0.0175372336349 : d : 	(-0.232127746542 -0.114472736462 -0.965925826289)
	I273 : dAve : 	(-0.00561019425706 -0.00190440433361 -0.0163624617374) : omega : 	0.0175372336349 : d : 	(-0.245083551895 -0.083194655468 -0.965925826289)
	I274 : dAve : 	(-0.00581077291359 -0.00115583459655 -0.0163624617374) : omega : 	0.0175372336349 : d : 	(-0.253845909725 -0.050493090853 -0.965925826289)
	I275 : dAve : 	(-0.00591192763451 -0.000387488209079 -0.0163624617374) : omega : 	0.0175372336349 : d : 	(-0.25826489366 -0.0169275754541 -0.965925826289)
	I276 : dAve : 	(-0.00591192763451 0.000387488209079 -0.0163624617374) : omega : 	0.0175372336349 : d : 	(-0.25826489366 0.0169275754541 -0.965925826289)
	I277 : dAve : 	(-0.00581077291359 0.00115583459655 -0.0163624617374) : omega : 	0.0175372336349 : d : 	(-0.253845909725 0.050493090853 -0.965925826289)
	I278 : dAve : 	(-0.00561019425706 0.00190440433361 -0.0163624617374) : omega : 	0.0175372336349 : d : 	(-0.245083551895 0.083194655468 -0.965925826289)
	I279 : dAve : 	(-0.00531362362136 0.00262038918453 -0.0163624617374) : omega : 	0.0175372336349 : d : 	(-0.232127746542 0.114472736462 -0.965925826289)
	I280 : dAve : 	(-0.00492613541228 0.00329153844998 -0.0163624617374) : omega : 	0.0175372336349 : d : 	(-0.215200171088 0.143792157198 -0.965925826289)
	I281 : dAve : 	(-0.00445435966052 0.00390636857998 -0.0163624617374) : omega : 	0.0175372336349 : d : 	(-0.194590461042 0.170651254257 -0.965925826289)
	I282 : dAve : 	(-0.00390636857998 0.00445435966052 -0.0163624617374) : omega : 	0.0175372336349 : d : 	(-0.170651254257 0.194590461042 -0.965925826289)
	I283 : dAve : 	(-0.00329153844998 0.00492613541228 -0.0163624617374) : omega : 	0.0175372336349 : d : 	(-0.143792157198 0.215200171088 -0.965925826289)
	I284 : dAve : 	(-0.00262038918453 0.00531362362136 -0.0163624617374) : omega : 	0.0175372336349 : d : 	(-0.114472736462 0.232127746542 -0.965925826289)
	I285 : dAve : 	(-0.00190440433361 0.00561019425706 -0.0163624617374) : omega : 	0.0175372336349 : d : 	(-0.083194655468 0.245083551895 -0.965925826289)
	I286 : dAve : 	(-0.00115583459655 0.00581077291359 -0.0163624617374) : omega : 	0.0175372336349 : d : 	(-0.050493090853 0.253845909725 -0.965925826289)
	I287 : dAve : 	(-0.000387488209079 0.00591192763451 -0.0163624617374) : omega : 	0.0175372336349 : d : 	(-0.0169275754541 0.25826489366 -0.965925826289)
Total omega : 12.5663706144

Courant Number mean: 0 max: 0

Starting time loop

Sampled set:
    data -> csv

Sampled set:
    data -> csv

Sampled surface:
    yNormal -> ensight
        sampledCuttingPlane: yNormal : plane:(0 1 0) (0 0 0) offsets:(0)

Sampled surface:
    zNormal -> ensight
        sampledCuttingPlane: zNormal : plane:(0 0 1) (0 0 0) offsets:(0)

Sampled surface:
    patchAll -> ensight
        sampledPatch: patchAll : patches:(".*WW.*")

deltaT = 1
Time = 1

PIMPLE: iteration 1
Radiation solver iter: 0
DILUPBiCGStab:  Solving for ILambda_0_0, Initial residual = 1, Final residual = 1.94878242263e-75, No Iterations 3
DILUPBiCGStab:  Solving for ILambda_1_0, Initial residual = 1, Final residual = 5.46325825267e-75, No Iterations 3
DILUPBiCGStab:  Solving for ILambda_2_0, Initial residual = 1, Final residual = 4.69488898717e-75, No Iterations 3
DILUPBiCGStab:  Solving for ILambda_3_0, Initial residual = 1, Final residual = 5.00162644762e-75, No Iterations 3
DILUPBiCGStab:  Solving for ILambda_4_0, Initial residual = 1, Final residual = 2.73855661783e-75, No Iterations 3
DILUPBiCGStab:  Solving for ILambda_5_0, Initial residual = 1, Final residual = 3.21396861955e-75, No Iterations 3
DILUPBiCGStab:  Solving for ILambda_6_0, Initial residual = 1, Final residual = 7.91220255142e-75, No Iterations 3
DILUPBiCGStab:  Solving for ILambda_7_0, Initial residual = 1, Final residual = 2.62727523228e-74, No Iterations 3
DILUPBiCGStab:  Solving for ILambda_8_0, Initial residual = 1, Final residual = 9.43826273861e-75, No Iterations 3
DILUPBiCGStab:  Solving for ILambda_9_0, Initial residual = 1, Final residual = 6.04996412673e-75, No Iterations 3
DILUPBiCGStab:  Solving for ILambda_10_0, Initial residual = 1, Final residual = 1.83272126362e-73, No Iterations 3
DILUPBiCGStab:  Solving for ILambda_11_0, Initial residual = 1, Final residual = 1.51096176846e-75, No Iterations 3
DILUPBiCGStab:  Solving for ILambda_12_0, Initial residual = 1, Final residual = 9.75526692612e-61, No Iterations 44
DILUPBiCGStab:  Solving for ILambda_13_0, Initial residual = 1, Final residual = 9.68163113699e-61, No Iterations 66
DILUPBiCGStab:  Solving for ILambda_14_0, Initial residual = 1, Final residual = 1.92605310364e-61, No Iterations 82
DILUPBiCGStab:  Solving for ILambda_15_0, Initial residual = 1, Final residual = 1.69795297374e-61, No Iterations 91
DILUPBiCGStab:  Solving for ILambda_16_0, Initial residual = 1, Final residual = 6.09929106257e-61, No Iterations 92
DILUPBiCGStab:  Solving for ILambda_17_0, Initial residual = 1, Final residual = 6.72614867671e-61, No Iterations 89
DILUPBiCGStab:  Solving for ILambda_18_0, Initial residual = 1, Final residual = 7.44169634873e-61, No Iterations 89
DILUPBiCGStab:  Solving for ILambda_19_0, Initial residual = 1, Final residual = 2.95943032751e-61, No Iterations 92
DILUPBiCGStab:  Solving for ILambda_20_0, Initial residual = 1, Final residual = 7.41952008529e-61, No Iterations 89
DILUPBiCGStab:  Solving for ILambda_21_0, Initial residual = 1, Final residual = 4.70262218702e-61, No Iterations 80
DILUPBiCGStab:  Solving for ILambda_22_0, Initial residual = 1, Final residual = 9.80234991401e-61, No Iterations 64
DILUPBiCGStab:  Solving for ILambda_23_0, Initial residual = 1, Final residual = 6.08557196973e-61, No Iterations 43
DILUPBiCGStab:  Solving for ILambda_24_0, Initial residual = 1, Final residual = 1.09411397016e-61, No Iterations 29
DILUPBiCGStab:  Solving for ILambda_25_0, Initial residual = 1, Final residual = 1.95945146597e-61, No Iterations 29
DILUPBiCGStab:  Solving for ILambda_26_0, Initial residual = 1, Final residual = 2.81661689964e-61, No Iterations 30
DILUPBiCGStab:  Solving for ILambda_27_0, Initial residual = 1, Final residual = 3.88494868198e-62, No Iterations 31
DILUPBiCGStab:  Solving for ILambda_28_0, Initial residual = 1, Final residual = 4.32641575713e-61, No Iterations 30
DILUPBiCGStab:  Solving for ILambda_29_0, Initial residual = 1, Final residual = 9.87375656399e-61, No Iterations 30
DILUPBiCGStab:  Solving for ILambda_30_0, Initial residual = 1, Final residual = 2.85448129686e-61, No Iterations 31
DILUPBiCGStab:  Solving for ILambda_31_0, Initial residual = 1, Final residual = 7.44391787607e-62, No Iterations 31
DILUPBiCGStab:  Solving for ILambda_32_0, Initial residual = 1, Final residual = 7.22226389875e-62, No Iterations 31
DILUPBiCGStab:  Solving for ILambda_33_0, Initial residual = 1, Final residual = 8.83178614098e-61, No Iterations 29
DILUPBiCGStab:  Solving for ILambda_34_0, Initial residual = 1, Final residual = 1.42943907397e-61, No Iterations 29
DILUPBiCGStab:  Solving for ILambda_35_0, Initial residual = 1, Final residual = 6.44160542252e-62, No Iterations 29
DILUPBiCGStab:  Solving for ILambda_36_0, Initial residual = 1, Final residual = 4.7693454245e-61, No Iterations 43
DILUPBiCGStab:  Solving for ILambda_37_0, Initial residual = 1, Final residual = 8.53065839663e-61, No Iterations 64
DILUPBiCGStab:  Solving for ILambda_38_0, Initial residual = 1, Final residual = 3.84004779605e-61, No Iterations 79
DILUPBiCGStab:  Solving for ILambda_39_0, Initial residual = 1, Final residual = 6.35944479175e-61, No Iterations 89
DILUPBiCGStab:  Solving for ILambda_40_0, Initial residual = 1, Final residual = 6.40051321252e-61, No Iterations 91
DILUPBiCGStab:  Solving for ILambda_41_0, Initial residual = 1, Final residual = 4.27273503406e-61, No Iterations 90
DILUPBiCGStab:  Solving for ILambda_42_0, Initial residual = 1, Final residual = 1.68472841415e-61, No Iterations 90
DILUPBiCGStab:  Solving for ILambda_43_0, Initial residual = 1, Final residual = 4.03877177317e-61, No Iterations 92
DILUPBiCGStab:  Solving for ILambda_44_0, Initial residual = 1, Final residual = 5.07053346714e-61, No Iterations 90
DILUPBiCGStab:  Solving for ILambda_45_0, Initial residual = 1, Final residual = 5.95717746645e-61, No Iterations 81
DILUPBiCGStab:  Solving for ILambda_46_0, Initial residual = 1, Final residual = 5.75861654862e-61, No Iterations 67
DILUPBiCGStab:  Solving for ILambda_47_0, Initial residual = 1, Final residual = 5.04222266611e-61, No Iterations 44
DILUPBiCGStab:  Solving for ILambda_48_0, Initial residual = 1, Final residual = 1.14391228806e-74, No Iterations 3
DILUPBiCGStab:  Solving for ILambda_49_0, Initial residual = 1, Final residual = 1.45725558685e-74, No Iterations 3
DILUPBiCGStab:  Solving for ILambda_50_0, Initial residual = 1, Final residual = 1.02986870368e-73, No Iterations 3
DILUPBiCGStab:  Solving for ILambda_51_0, Initial residual = 1, Final residual = 3.43554350194e-74, No Iterations 3
DILUPBiCGStab:  Solving for ILambda_52_0, Initial residual = 1, Final residual = 1.39071469527e-74, No Iterations 3
DILUPBiCGStab:  Solving for ILambda_53_0, Initial residual = 1, Final residual = 3.54630762092e-74, No Iterations 3
DILUPBiCGStab:  Solving for ILambda_54_0, Initial residual = 1, Final residual = 1.84279900858e-73, No Iterations 3
DILUPBiCGStab:  Solving for ILambda_55_0, Initial residual = 1, Final residual = 1.52796526305e-74, No Iterations 3
DILUPBiCGStab:  Solving for ILambda_56_0, Initial residual = 1, Final residual = 6.72168650995e-72, No Iterations 3
DILUPBiCGStab:  Solving for ILambda_57_0, Initial residual = 1, Final residual = 7.94694073987e-74, No Iterations 3
DILUPBiCGStab:  Solving for ILambda_58_0, Initial residual = 1, Final residual = 1.85081955201e-74, No Iterations 3
DILUPBiCGStab:  Solving for ILambda_59_0, Initial residual = 1, Final residual = 1.55455934218e-74, No Iterations 3
DILUPBiCGStab:  Solving for ILambda_60_0, Initial residual = 1, Final residual = 9.91902483034e-62, No Iterations 47
DILUPBiCGStab:  Solving for ILambda_61_0, Initial residual = 1, Final residual = 6.65843002356e-61, No Iterations 69
DILUPBiCGStab:  Solving for ILambda_62_0, Initial residual = 1, Final residual = 2.47001641703e-61, No Iterations 83
DILUPBiCGStab:  Solving for ILambda_63_0, Initial residual = 1, Final residual = 3.22393814465e-61, No Iterations 96
DILUPBiCGStab:  Solving for ILambda_64_0, Initial residual = 1, Final residual = 3.22561523166e-61, No Iterations 98
DILUPBiCGStab:  Solving for ILambda_65_0, Initial residual = 1, Final residual = 1.90307004395e-61, No Iterations 97
DILUPBiCGStab:  Solving for ILambda_66_0, Initial residual = 1, Final residual = 3.86237746749e-61, No Iterations 99
DILUPBiCGStab:  Solving for ILambda_67_0, Initial residual = 1, Final residual = 3.00358369546e-61, No Iterations 97
DILUPBiCGStab:  Solving for ILambda_68_0, Initial residual = 1, Final residual = 2.92342340966e-61, No Iterations 91
DILUPBiCGStab:  Solving for ILambda_69_0, Initial residual = 1, Final residual = 3.76510604615e-61, No Iterations 81
DILUPBiCGStab:  Solving for ILambda_70_0, Initial residual = 1, Final residual = 1.73098641521e-61, No Iterations 65
DILUPBiCGStab:  Solving for ILambda_71_0, Initial residual = 1, Final residual = 6.49336078659e-61, No Iterations 45
DILUPBiCGStab:  Solving for ILambda_72_0, Initial residual = 1, Final residual = 1.03384458549e-61, No Iterations 35
DILUPBiCGStab:  Solving for ILambda_73_0, Initial residual = 1, Final residual = 1.82292296492e-61, No Iterations 37
DILUPBiCGStab:  Solving for ILambda_74_0, Initial residual = 1, Final residual = 3.53450032757e-61, No Iterations 36
DILUPBiCGStab:  Solving for ILambda_75_0, Initial residual = 1, Final residual = 1.13330539891e-61, No Iterations 38
DILUPBiCGStab:  Solving for ILambda_76_0, Initial residual = 1, Final residual = 7.64278088867e-62, No Iterations 38
DILUPBiCGStab:  Solving for ILambda_77_0, Initial residual = 1, Final residual = 6.5877396355e-62, No Iterations 38
DILUPBiCGStab:  Solving for ILambda_78_0, Initial residual = 1, Final residual = 3.04927388374e-62, No Iterations 37
DILUPBiCGStab:  Solving for ILambda_79_0, Initial residual = 1, Final residual = 8.04982895887e-61, No Iterations 38
DILUPBiCGStab:  Solving for ILambda_80_0, Initial residual = 1, Final residual = 7.940274478e-61, No Iterations 38
DILUPBiCGStab:  Solving for ILambda_81_0, Initial residual = 1, Final residual = 4.92027047069e-61, No Iterations 37
DILUPBiCGStab:  Solving for ILambda_82_0, Initial residual = 1, Final residual = 7.49040381601e-62, No Iterations 37
DILUPBiCGStab:  Solving for ILambda_83_0, Initial residual = 1, Final residual = 1.61690487405e-61, No Iterations 35
DILUPBiCGStab:  Solving for ILambda_84_0, Initial residual = 1, Final residual = 4.26421530276e-61, No Iterations 45
DILUPBiCGStab:  Solving for ILambda_85_0, Initial residual = 1, Final residual = 1.59648431281e-61, No Iterations 65
DILUPBiCGStab:  Solving for ILambda_86_0, Initial residual = 1, Final residual = 2.66429912024e-61, No Iterations 80
DILUPBiCGStab:  Solving for ILambda_87_0, Initial residual = 1, Final residual = 8.96211276936e-62, No Iterations 93
DILUPBiCGStab:  Solving for ILambda_88_0, Initial residual = 1, Final residual = 5.72286964566e-61, No Iterations 98
DILUPBiCGStab:  Solving for ILambda_89_0, Initial residual = 1, Final residual = 4.92138908989e-61, No Iterations 100
DILUPBiCGStab:  Solving for ILambda_90_0, Initial residual = 1, Final residual = 6.55787810161e-61, No Iterations 98
DILUPBiCGStab:  Solving for ILambda_91_0, Initial residual = 1, Final residual = 3.27261152577e-61, No Iterations 98
DILUPBiCGStab:  Solving for ILambda_92_0, Initial residual = 1, Final residual = 9.12740816343e-61, No Iterations 94
DILUPBiCGStab:  Solving for ILambda_93_0, Initial residual = 1, Final residual = 2.8719486272e-61, No Iterations 83
DILUPBiCGStab:  Solving for ILambda_94_0, Initial residual = 1, Final residual = 4.47582601395e-61, No Iterations 70
DILUPBiCGStab:  Solving for ILambda_95_0, Initial residual = 1, Final residual = 3.36868572834e-61, No Iterations 46
DILUPBiCGStab:  Solving for ILambda_96_0, Initial residual = 1, Final residual = 3.71759582993e-74, No Iterations 3
DILUPBiCGStab:  Solving for ILambda_97_0, Initial residual = 1, Final residual = 1.54029885476e-73, No Iterations 3
DILUPBiCGStab:  Solving for ILambda_98_0, Initial residual = 1, Final residual = 7.59212380294e-74, No Iterations 3
DILUPBiCGStab:  Solving for ILambda_99_0, Initial residual = 1, Final residual = 1.56474639225e-73, No Iterations 3
DILUPBiCGStab:  Solving for ILambda_100_0, Initial residual = 1, Final residual = 9.36770742514e-74, No Iterations 3
DILUPBiCGStab:  Solving for ILambda_101_0, Initial residual = 1, Final residual = 9.96937602537e-74, No Iterations 3
DILUPBiCGStab:  Solving for ILambda_102_0, Initial residual = 1, Final residual = 1.16233386414e-73, No Iterations 3
DILUPBiCGStab:  Solving for ILambda_103_0, Initial residual = 1, Final residual = 1.30736158934e-73, No Iterations 3
DILUPBiCGStab:  Solving for ILambda_104_0, Initial residual = 1, Final residual = 7.18218703091e-73, No Iterations 3
DILUPBiCGStab:  Solving for ILambda_105_0, Initial residual = 1, Final residual = 3.4475116627e-74, No Iterations 3
DILUPBiCGStab:  Solving for ILambda_106_0, Initial residual = 1, Final residual = 1.36464378851e-73, No Iterations 3
DILUPBiCGStab:  Solving for ILambda_107_0, Initial residual = 1, Final residual = 3.21234707644e-74, No Iterations 3
DILUPBiCGStab:  Solving for ILambda_108_0, Initial residual = 1, Final residual = 1.37088791764e-61, No Iterations 48
DILUPBiCGStab:  Solving for ILambda_109_0, Initial residual = 1, Final residual = 3.33483468568e-61, No Iterations 71
DILUPBiCGStab:  Solving for ILambda_110_0, Initial residual = 1, Final residual = 2.33165074339e-61, No Iterations 83
DILUPBiCGStab:  Solving for ILambda_111_0, Initial residual = 1, Final residual = 4.18521697495e-61, No Iterations 88
DILUPBiCGStab:  Solving for ILambda_112_0, Initial residual = 1, Final residual = 3.16710402742e-61, No Iterations 98
DILUPBiCGStab:  Solving for ILambda_113_0, Initial residual = 1, Final residual = 6.92232595413e-61, No Iterations 103
DILUPBiCGStab:  Solving for ILambda_114_0, Initial residual = 1, Final residual = 9.40546862302e-61, No Iterations 104
DILUPBiCGStab:  Solving for ILambda_115_0, Initial residual = 1, Final residual = 6.11465219395e-61, No Iterations 100
DILUPBiCGStab:  Solving for ILambda_116_0, Initial residual = 1, Final residual = 7.30075110685e-61, No Iterations 93
DILUPBiCGStab:  Solving for ILambda_117_0, Initial residual = 1, Final residual = 4.87563042689e-61, No Iterations 80
DILUPBiCGStab:  Solving for ILambda_118_0, Initial residual = 1, Final residual = 6.02076990118e-61, No Iterations 68
DILUPBiCGStab:  Solving for ILambda_119_0, Initial residual = 1, Final residual = 6.61755466866e-61, No Iterations 48
DILUPBiCGStab:  Solving for ILambda_120_0, Initial residual = 1, Final residual = 5.5202282741e-61, No Iterations 39
DILUPBiCGStab:  Solving for ILambda_121_0, Initial residual = 1, Final residual = 3.35045329306e-61, No Iterations 44
DILUPBiCGStab:  Solving for ILambda_122_0, Initial residual = 1, Final residual = 4.68426651867e-62, No Iterations 45
DILUPBiCGStab:  Solving for ILambda_123_0, Initial residual = 1, Final residual = 6.45624946238e-62, No Iterations 44
DILUPBiCGStab:  Solving for ILambda_124_0, Initial residual = 1, Final residual = 7.46279284601e-61, No Iterations 45
DILUPBiCGStab:  Solving for ILambda_125_0, Initial residual = 1, Final residual = 2.87793082938e-61, No Iterations 47
DILUPBiCGStab:  Solving for ILambda_126_0, Initial residual = 1, Final residual = 9.38991803001e-61, No Iterations 49
DILUPBiCGStab:  Solving for ILambda_127_0, Initial residual = 1, Final residual = 7.36501273619e-62, No Iterations 50
DILUPBiCGStab:  Solving for ILambda_128_0, Initial residual = 1, Final residual = 1.69133908006e-61, No Iterations 47
DILUPBiCGStab:  Solving for ILambda_129_0, Initial residual = 1, Final residual = 5.85088090353e-61, No Iterations 44
DILUPBiCGStab:  Solving for ILambda_130_0, Initial residual = 1, Final residual = 5.45048410683e-61, No Iterations 42
DILUPBiCGStab:  Solving for ILambda_131_0, Initial residual = 1, Final residual = 4.0362444714e-61, No Iterations 40
DILUPBiCGStab:  Solving for ILambda_132_0, Initial residual = 1, Final residual = 7.64731104816e-61, No Iterations 48
DILUPBiCGStab:  Solving for ILambda_133_0, Initial residual = 1, Final residual = 3.49503818006e-61, No Iterations 68
DILUPBiCGStab:  Solving for ILambda_134_0, Initial residual = 1, Final residual = 5.79374323791e-61, No Iterations 80
DILUPBiCGStab:  Solving for ILambda_135_0, Initial residual = 1, Final residual = 3.52345907301e-61, No Iterations 93
DILUPBiCGStab:  Solving for ILambda_136_0, Initial residual = 1, Final residual = 1.88740837906e-61, No Iterations 99
DILUPBiCGStab:  Solving for ILambda_137_0, Initial residual = 1, Final residual = 1.94186048844e-61, No Iterations 103
DILUPBiCGStab:  Solving for ILambda_138_0, Initial residual = 1, Final residual = 6.85473767833e-61, No Iterations 102
DILUPBiCGStab:  Solving for ILambda_139_0, Initial residual = 1, Final residual = 6.38587185742e-61, No Iterations 99
DILUPBiCGStab:  Solving for ILambda_140_0, Initial residual = 1, Final residual = 2.54701672459e-61, No Iterations 89
DILUPBiCGStab:  Solving for ILambda_141_0, Initial residual = 1, Final residual = 5.62952709178e-61, No Iterations 83
DILUPBiCGStab:  Solving for ILambda_142_0, Initial residual = 1, Final residual = 1.6735871111e-62, No Iterations 72
DILUPBiCGStab:  Solving for ILambda_143_0, Initial residual = 1, Final residual = 2.55033402207e-61, No Iterations 48
DILUPBiCGStab:  Solving for ILambda_144_0, Initial residual = 1, Final residual = 3.8064982625e-62, No Iterations 37
DILUPBiCGStab:  Solving for ILambda_145_0, Initial residual = 1, Final residual = 1.16697949026e-61, No Iterations 38
DILUPBiCGStab:  Solving for ILambda_146_0, Initial residual = 1, Final residual = 6.62666690503e-61, No Iterations 44
DILUPBiCGStab:  Solving for ILambda_147_0, Initial residual = 1, Final residual = 1.54324932863e-61, No Iterations 40
DILUPBiCGStab:  Solving for ILambda_148_0, Initial residual = 1, Final residual = 7.70092179113e-61, No Iterations 39
DILUPBiCGStab:  Solving for ILambda_149_0, Initial residual = 1, Final residual = 2.85995365252e-61, No Iterations 47
DILUPBiCGStab:  Solving for ILambda_150_0, Initial residual = 1, Final residual = 8.12467714624e-61, No Iterations 41
DILUPBiCGStab:  Solving for ILambda_151_0, Initial residual = 1, Final residual = 1.22184270219e-61, No Iterations 43
DILUPBiCGStab:  Solving for ILambda_152_0, Initial residual = 1, Final residual = 1.00322239888e-61, No Iterations 45
DILUPBiCGStab:  Solving for ILambda_153_0, Initial residual = 1, Final residual = 4.51591814527e-61, No Iterations 39
DILUPBiCGStab:  Solving for ILambda_154_0, Initial residual = 1, Final residual = 7.66619759551e-62, No Iterations 41
DILUPBiCGStab:  Solving for ILambda_155_0, Initial residual = 1, Final residual = 3.27369013005e-62, No Iterations 36
DILUPBiCGStab:  Solving for ILambda_156_0, Initial residual = 1, Final residual = 4.27221398184e-61, No Iterations 48
DILUPBiCGStab:  Solving for ILambda_157_0, Initial residual = 1, Final residual = 9.71051063461e-61, No Iterations 66
DILUPBiCGStab:  Solving for ILambda_158_0, Initial residual = 1, Final residual = 7.652178904e-61, No Iterations 78
DILUPBiCGStab:  Solving for ILambda_159_0, Initial residual = 1, Final residual = 1.05195163006e-61, No Iterations 92
DILUPBiCGStab:  Solving for ILambda_160_0, Initial residual = 1, Final residual = 5.66101105465e-62, No Iterations 97
DILUPBiCGStab:  Solving for ILambda_161_0, Initial residual = 1, Final residual = 3.73567684552e-61, No Iterations 102
DILUPBiCGStab:  Solving for ILambda_162_0, Initial residual = 1, Final residual = 7.12566854868e-61, No Iterations 101
DILUPBiCGStab:  Solving for ILambda_163_0, Initial residual = 1, Final residual = 9.69878958752e-61, No Iterations 97
DILUPBiCGStab:  Solving for ILambda_164_0, Initial residual = 1, Final residual = 4.05809632161e-61, No Iterations 91
DILUPBiCGStab:  Solving for ILambda_165_0, Initial residual = 1, Final residual = 9.51146032138e-61, No Iterations 83
DILUPBiCGStab:  Solving for ILambda_166_0, Initial residual = 1, Final residual = 3.85854242734e-61, No Iterations 70
DILUPBiCGStab:  Solving for ILambda_167_0, Initial residual = 1, Final residual = 1.94623169844e-61, No Iterations 47
DILUPBiCGStab:  Solving for ILambda_168_0, Initial residual = 1, Final residual = 1.12581039906e-72, No Iterations 3
DILUPBiCGStab:  Solving for ILambda_169_0, Initial residual = 1, Final residual = 6.81015831773e-74, No Iterations 3
DILUPBiCGStab:  Solving for ILambda_170_0, Initial residual = 1, Final residual = 1.0674057626e-71, No Iterations 3
DILUPBiCGStab:  Solving for ILambda_171_0, Initial residual = 1, Final residual = 8.29896290447e-73, No Iterations 3
DILUPBiCGStab:  Solving for ILambda_172_0, Initial residual = 1, Final residual = 2.75732924969e-73, No Iterations 3
DILUPBiCGStab:  Solving for ILambda_173_0, Initial residual = 1, Final residual = 9.17615676601e-73, No Iterations 3
DILUPBiCGStab:  Solving for ILambda_174_0, Initial residual = 1, Final residual = 2.42426644637e-72, No Iterations 3
DILUPBiCGStab:  Solving for ILambda_175_0, Initial residual = 1, Final residual = 1.07476055358e-72, No Iterations 3
DILUPBiCGStab:  Solving for ILambda_176_0, Initial residual = 1, Final residual = 2.13427115921e-72, No Iterations 3
DILUPBiCGStab:  Solving for ILambda_177_0, Initial residual = 1, Final residual = 3.50777846813e-73, No Iterations 3
DILUPBiCGStab:  Solving for ILambda_178_0, Initial residual = 1, Final residual = 1.49718523683e-73, No Iterations 3
DILUPBiCGStab:  Solving for ILambda_179_0, Initial residual = 1, Final residual = 3.59956936883e-73, No Iterations 3
DILUPBiCGStab:  Solving for ILambda_180_0, Initial residual = 1, Final residual = 3.7435820576e-61, No Iterations 47
DILUPBiCGStab:  Solving for ILambda_181_0, Initial residual = 1, Final residual = 2.06555084652e-61, No Iterations 71
DILUPBiCGStab:  Solving for ILambda_182_0, Initial residual = 1, Final residual = 3.34641485118e-61, No Iterations 82
DILUPBiCGStab:  Solving for ILambda_183_0, Initial residual = 1, Final residual = 4.58621892247e-61, No Iterations 89
DILUPBiCGStab:  Solving for ILambda_184_0, Initial residual = 1, Final residual = 6.01284167191e-61, No Iterations 99
DILUPBiCGStab:  Solving for ILambda_185_0, Initial residual = 1, Final residual = 8.20628490497e-62, No Iterations 104
DILUPBiCGStab:  Solving for ILambda_186_0, Initial residual = 1, Final residual = 2.54549909056e-61, No Iterations 100
DILUPBiCGStab:  Solving for ILambda_187_0, Initial residual = 1, Final residual = 3.18882111203e-61, No Iterations 97
DILUPBiCGStab:  Solving for ILambda_188_0, Initial residual = 1, Final residual = 6.53300997893e-61, No Iterations 91
DILUPBiCGStab:  Solving for ILambda_189_0, Initial residual = 1, Final residual = 1.44956666091e-61, No Iterations 80
DILUPBiCGStab:  Solving for ILambda_190_0, Initial residual = 1, Final residual = 7.09533556737e-61, No Iterations 67
DILUPBiCGStab:  Solving for ILambda_191_0, Initial residual = 1, Final residual = 5.73351137813e-62, No Iterations 49
DILUPBiCGStab:  Solving for ILambda_192_0, Initial residual = 1, Final residual = 3.43583908422e-61, No Iterations 34
DILUPBiCGStab:  Solving for ILambda_193_0, Initial residual = 1, Final residual = 7.30536100881e-62, No Iterations 34
DILUPBiCGStab:  Solving for ILambda_194_0, Initial residual = 1, Final residual = 3.53223575055e-62, No Iterations 37
DILUPBiCGStab:  Solving for ILambda_195_0, Initial residual = 1, Final residual = 6.85761243847e-61, No Iterations 37
DILUPBiCGStab:  Solving for ILambda_196_0, Initial residual = 1, Final residual = 6.64770507269e-61, No Iterations 36
DILUPBiCGStab:  Solving for ILambda_197_0, Initial residual = 1, Final residual = 2.26923693498e-61, No Iterations 36
DILUPBiCGStab:  Solving for ILambda_198_0, Initial residual = 1, Final residual = 4.33332074178e-61, No Iterations 36
DILUPBiCGStab:  Solving for ILambda_199_0, Initial residual = 1, Final residual = 1.03250677206e-62, No Iterations 36
DILUPBiCGStab:  Solving for ILambda_200_0, Initial residual = 1, Final residual = 3.33006104052e-61, No Iterations 36
DILUPBiCGStab:  Solving for ILambda_201_0, Initial residual = 1, Final residual = 1.63615216064e-61, No Iterations 36
DILUPBiCGStab:  Solving for ILambda_202_0, Initial residual = 1, Final residual = 2.91520437126e-61, No Iterations 34
DILUPBiCGStab:  Solving for ILambda_203_0, Initial residual = 1, Final residual = 5.49383465513e-61, No Iterations 36
DILUPBiCGStab:  Solving for ILambda_204_0, Initial residual = 1, Final residual = 7.7052742945e-61, No Iterations 45
DILUPBiCGStab:  Solving for ILambda_205_0, Initial residual = 1, Final residual = 8.1497899595e-61, No Iterations 64
DILUPBiCGStab:  Solving for ILambda_206_0, Initial residual = 1, Final residual = 4.61786698696e-61, No Iterations 81
DILUPBiCGStab:  Solving for ILambda_207_0, Initial residual = 1, Final residual = 9.27193195264e-61, No Iterations 93
DILUPBiCGStab:  Solving for ILambda_208_0, Initial residual = 1, Final residual = 8.97961425011e-61, No Iterations 95
DILUPBiCGStab:  Solving for ILambda_209_0, Initial residual = 1, Final residual = 2.19734230693e-61, No Iterations 99
DILUPBiCGStab:  Solving for ILambda_210_0, Initial residual = 1, Final residual = 2.49886680653e-61, No Iterations 98
DILUPBiCGStab:  Solving for ILambda_211_0, Initial residual = 1, Final residual = 2.82318119797e-61, No Iterations 99
DILUPBiCGStab:  Solving for ILambda_212_0, Initial residual = 1, Final residual = 6.45250741599e-61, No Iterations 94
DILUPBiCGStab:  Solving for ILambda_213_0, Initial residual = 1, Final residual = 4.17213527415e-61, No Iterations 85
DILUPBiCGStab:  Solving for ILambda_214_0, Initial residual = 1, Final residual = 7.09246714993e-61, No Iterations 72
DILUPBiCGStab:  Solving for ILambda_215_0, Initial residual = 1, Final residual = 7.98755201909e-62, No Iterations 46
DILUPBiCGStab:  Solving for ILambda_216_0, Initial residual = 1, Final residual = 9.97420087377e-74, No Iterations 3
DILUPBiCGStab:  Solving for ILambda_217_0, Initial residual = 1, Final residual = 4.03521762196e-74, No Iterations 3
DILUPBiCGStab:  Solving for ILambda_218_0, Initial residual = 1, Final residual = 6.98247698831e-73, No Iterations 3
DILUPBiCGStab:  Solving for ILambda_219_0, Initial residual = 1, Final residual = 2.89176556071e-73, No Iterations 3
DILUPBiCGStab:  Solving for ILambda_220_0, Initial residual = 1, Final residual = 1.89525335079e-73, No Iterations 3
DILUPBiCGStab:  Solving for ILambda_221_0, Initial residual = 1, Final residual = 4.43944056444e-72, No Iterations 3
DILUPBiCGStab:  Solving for ILambda_222_0, Initial residual = 1, Final residual = 6.14123476956e-73, No Iterations 3
DILUPBiCGStab:  Solving for ILambda_223_0, Initial residual = 1, Final residual = 8.59216275907e-74, No Iterations 3
DILUPBiCGStab:  Solving for ILambda_224_0, Initial residual = 1, Final residual = 1.08748559883e-74, No Iterations 3
DILUPBiCGStab:  Solving for ILambda_225_0, Initial residual = 1, Final residual = 1.14187934022e-73, No Iterations 3
DILUPBiCGStab:  Solving for ILambda_226_0, Initial residual = 1, Final residual = 7.80705035209e-73, No Iterations 3
DILUPBiCGStab:  Solving for ILambda_227_0, Initial residual = 1, Final residual = 6.61859689115e-73, No Iterations 3
DILUPBiCGStab:  Solving for ILambda_228_0, Initial residual = 1, Final residual = 1.18499826621e-61, No Iterations 46
DILUPBiCGStab:  Solving for ILambda_229_0, Initial residual = 1, Final residual = 3.12299855961e-61, No Iterations 71
DILUPBiCGStab:  Solving for ILambda_230_0, Initial residual = 1, Final residual = 2.99839210267e-61, No Iterations 85
DILUPBiCGStab:  Solving for ILambda_231_0, Initial residual = 1, Final residual = 4.45724887043e-61, No Iterations 95
DILUPBiCGStab:  Solving for ILambda_232_0, Initial residual = 1, Final residual = 3.46062164371e-61, No Iterations 98
DILUPBiCGStab:  Solving for ILambda_233_0, Initial residual = 1, Final residual = 3.16510724871e-61, No Iterations 97
DILUPBiCGStab:  Solving for ILambda_234_0, Initial residual = 1, Final residual = 7.76736104892e-61, No Iterations 99
DILUPBiCGStab:  Solving for ILambda_235_0, Initial residual = 1, Final residual = 8.66210934376e-61, No Iterations 97
DILUPBiCGStab:  Solving for ILambda_236_0, Initial residual = 1, Final residual = 4.1912380056e-61, No Iterations 93
DILUPBiCGStab:  Solving for ILambda_237_0, Initial residual = 1, Final residual = 6.48449829157e-61, No Iterations 80
DILUPBiCGStab:  Solving for ILambda_238_0, Initial residual = 1, Final residual = 2.6761226624e-61, No Iterations 64
DILUPBiCGStab:  Solving for ILambda_239_0, Initial residual = 1, Final residual = 6.46555331176e-61, No Iterations 45
DILUPBiCGStab:  Solving for ILambda_240_0, Initial residual = 1, Final residual = 1.46449208436e-61, No Iterations 29
DILUPBiCGStab:  Solving for ILambda_241_0, Initial residual = 1, Final residual = 6.89295153928e-61, No Iterations 28
DILUPBiCGStab:  Solving for ILambda_242_0, Initial residual = 1, Final residual = 4.5595185176e-61, No Iterations 29
DILUPBiCGStab:  Solving for ILambda_243_0, Initial residual = 1, Final residual = 8.12233095302e-61, No Iterations 31
DILUPBiCGStab:  Solving for ILambda_244_0, Initial residual = 1, Final residual = 2.12614316952e-61, No Iterations 31
DILUPBiCGStab:  Solving for ILambda_245_0, Initial residual = 1, Final residual = 1.53971476854e-61, No Iterations 31
DILUPBiCGStab:  Solving for ILambda_246_0, Initial residual = 1, Final residual = 3.05535455178e-61, No Iterations 31
DILUPBiCGStab:  Solving for ILambda_247_0, Initial residual = 1, Final residual = 2.81830468718e-62, No Iterations 31
DILUPBiCGStab:  Solving for ILambda_248_0, Initial residual = 1, Final residual = 5.62941349972e-61, No Iterations 31
DILUPBiCGStab:  Solving for ILambda_249_0, Initial residual = 1, Final residual = 5.85459648076e-61, No Iterations 29
DILUPBiCGStab:  Solving for ILambda_250_0, Initial residual = 1, Final residual = 1.32825828812e-61, No Iterations 30
DILUPBiCGStab:  Solving for ILambda_251_0, Initial residual = 1, Final residual = 1.21879287935e-61, No Iterations 29
DILUPBiCGStab:  Solving for ILambda_252_0, Initial residual = 1, Final residual = 1.78318854525e-61, No Iterations 43
DILUPBiCGStab:  Solving for ILambda_253_0, Initial residual = 1, Final residual = 5.98217980668e-61, No Iterations 65
DILUPBiCGStab:  Solving for ILambda_254_0, Initial residual = 1, Final residual = 5.66766333568e-61, No Iterations 79
DILUPBiCGStab:  Solving for ILambda_255_0, Initial residual = 1, Final residual = 2.76370775966e-61, No Iterations 89
DILUPBiCGStab:  Solving for ILambda_256_0, Initial residual = 1, Final residual = 2.32307224485e-61, No Iterations 92
DILUPBiCGStab:  Solving for ILambda_257_0, Initial residual = 1, Final residual = 8.57052491878e-61, No Iterations 90
DILUPBiCGStab:  Solving for ILambda_258_0, Initial residual = 1, Final residual = 1.76595268735e-61, No Iterations 91
DILUPBiCGStab:  Solving for ILambda_259_0, Initial residual = 1, Final residual = 3.30682965382e-61, No Iterations 93
DILUPBiCGStab:  Solving for ILambda_260_0, Initial residual = 1, Final residual = 2.34748709566e-61, No Iterations 89
DILUPBiCGStab:  Solving for ILambda_261_0, Initial residual = 1, Final residual = 9.50583001308e-61, No Iterations 83
DILUPBiCGStab:  Solving for ILambda_262_0, Initial residual = 1, Final residual = 9.29539263863e-61, No Iterations 67
DILUPBiCGStab:  Solving for ILambda_263_0, Initial residual = 1, Final residual = 4.9846506689e-61, No Iterations 44
DILUPBiCGStab:  Solving for ILambda_264_0, Initial residual = 1, Final residual = 1.86501772233e-74, No Iterations 3
DILUPBiCGStab:  Solving for ILambda_265_0, Initial residual = 1, Final residual = 5.30867527779e-75, No Iterations 3
DILUPBiCGStab:  Solving for ILambda_266_0, Initial residual = 1, Final residual = 7.82640967438e-75, No Iterations 3
DILUPBiCGStab:  Solving for ILambda_267_0, Initial residual = 1, Final residual = 4.69888494697e-75, No Iterations 3
DILUPBiCGStab:  Solving for ILambda_268_0, Initial residual = 1, Final residual = 1.3506315726e-74, No Iterations 3
DILUPBiCGStab:  Solving for ILambda_269_0, Initial residual = 1, Final residual = 1.07275234857e-73, No Iterations 3
DILUPBiCGStab:  Solving for ILambda_270_0, Initial residual = 1, Final residual = 4.94132585266e-74, No Iterations 3
DILUPBiCGStab:  Solving for ILambda_271_0, Initial residual = 1, Final residual = 6.88359099829e-75, No Iterations 3
DILUPBiCGStab:  Solving for ILambda_272_0, Initial residual = 1, Final residual = 5.05187957902e-75, No Iterations 3
DILUPBiCGStab:  Solving for ILambda_273_0, Initial residual = 1, Final residual = 8.36323091162e-75, No Iterations 3
DILUPBiCGStab:  Solving for ILambda_274_0, Initial residual = 1, Final residual = 3.27170283921e-72, No Iterations 3
DILUPBiCGStab:  Solving for ILambda_275_0, Initial residual = 1, Final residual = 1.15629925634e-72, No Iterations 3
DILUPBiCGStab:  Solving for ILambda_276_0, Initial residual = 1, Final residual = 6.43189414379e-61, No Iterations 44
DILUPBiCGStab:  Solving for ILambda_277_0, Initial residual = 1, Final residual = 5.55814181234e-61, No Iterations 67
DILUPBiCGStab:  Solving for ILambda_278_0, Initial residual = 1, Final residual = 3.13265143467e-61, No Iterations 81
DILUPBiCGStab:  Solving for ILambda_279_0, Initial residual = 1, Final residual = 2.82667566487e-62, No Iterations 91
DILUPBiCGStab:  Solving for ILambda_280_0, Initial residual = 1, Final residual = 5.62419762119e-61, No Iterations 93
DILUPBiCGStab:  Solving for ILambda_281_0, Initial residual = 1, Final residual = 3.22003601134e-61, No Iterations 91
DILUPBiCGStab:  Solving for ILambda_282_0, Initial residual = 1, Final residual = 2.45168544116e-61, No Iterations 90
DILUPBiCGStab:  Solving for ILambda_283_0, Initial residual = 1, Final residual = 5.21344812802e-61, No Iterations 91
DILUPBiCGStab:  Solving for ILambda_284_0, Initial residual = 1, Final residual = 4.44690369824e-61, No Iterations 90
DILUPBiCGStab:  Solving for ILambda_285_0, Initial residual = 1, Final residual = 3.07921353569e-61, No Iterations 79
[...]
DILUPBiCGStab:  Solving for ILambda_140_0, Initial residual = 1.80448389023e-15, Final residual = 4.8335153969e-61, No Iterations 67
DILUPBiCGStab:  Solving for ILambda_141_0, Initial residual = 1.7295556855e-15, Final residual = 6.29048516017e-61, No Iterations 62
DILUPBiCGStab:  Solving for ILambda_142_0, Initial residual = 1.35176286274e-15, Final residual = 2.8267985731e-61, No Iterations 52
DILUPBiCGStab:  Solving for ILambda_143_0, Initial residual = 9.6892940487e-16, Final residual = 7.25546007622e-62, No Iterations 36
DILUPBiCGStab:  Solving for ILambda_144_0, Initial residual = 9.52667161644e-16, Final residual = 3.09899380063e-61, No Iterations 24
DILUPBiCGStab:  Solving for ILambda_145_0, Initial residual = 1.16978897542e-15, Final residual = 5.91815581533e-61, No Iterations 27
DILUPBiCGStab:  Solving for ILambda_146_0, Initial residual = 1.20498725214e-15, Final residual = 6.92134804261e-62, No Iterations 23
DILUPBiCGStab:  Solving for ILambda_147_0, Initial residual = 1.2731059341e-15, Final residual = 9.30373062346e-61, No Iterations 23
DILUPBiCGStab:  Solving for ILambda_148_0, Initial residual = 1.2460120105e-15, Final residual = 1.31307588869e-61, No Iterations 28
DILUPBiCGStab:  Solving for ILambda_149_0, Initial residual = 1.50848577363e-15, Final residual = 4.97332596521e-61, No Iterations 27
DILUPBiCGStab:  Solving for ILambda_150_0, Initial residual = 1.30614004172e-15, Final residual = 4.57770153034e-61, No Iterations 24
DILUPBiCGStab:  Solving for ILambda_151_0, Initial residual = 1.38773474897e-15, Final residual = 1.45251649246e-62, No Iterations 25
DILUPBiCGStab:  Solving for ILambda_152_0, Initial residual = 1.38754877166e-15, Final residual = 5.99929922057e-61, No Iterations 24
DILUPBiCGStab:  Solving for ILambda_153_0, Initial residual = 1.32218609748e-15, Final residual = 7.48852028041e-61, No Iterations 25
DILUPBiCGStab:  Solving for ILambda_154_0, Initial residual = 1.30207887859e-15, Final residual = 5.82531516969e-62, No Iterations 24
DILUPBiCGStab:  Solving for ILambda_155_0, Initial residual = 1.03645650309e-15, Final residual = 2.13571168131e-61, No Iterations 25
DILUPBiCGStab:  Solving for ILambda_156_0, Initial residual = 9.15385021311e-16, Final residual = 4.54052779347e-62, No Iterations 37
DILUPBiCGStab:  Solving for ILambda_157_0, Initial residual = 1.25630704628e-15, Final residual = 1.88802193979e-61, No Iterations 53
DILUPBiCGStab:  Solving for ILambda_158_0, Initial residual = 1.69011179798e-15, Final residual = 4.79187250513e-61, No Iterations 60
DILUPBiCGStab:  Solving for ILambda_159_0, Initial residual = 1.88927386353e-15, Final residual = 4.71947089897e-61, No Iterations 63
DILUPBiCGStab:  Solving for ILambda_160_0, Initial residual = 2.31200933259e-15, Final residual = 4.51524197592e-61, No Iterations 71
DILUPBiCGStab:  Solving for ILambda_161_0, Initial residual = 1.8849460352e-15, Final residual = 8.64573963321e-61, No Iterations 76
DILUPBiCGStab:  Solving for ILambda_162_0, Initial residual = 2.38437375283e-15, Final residual = 3.9055191941e-62, No Iterations 76
DILUPBiCGStab:  Solving for ILambda_163_0, Initial residual = 2.32197575322e-15, Final residual = 8.67498196179e-61, No Iterations 70
DILUPBiCGStab:  Solving for ILambda_164_0, Initial residual = 1.87672288095e-15, Final residual = 4.13743225603e-61, No Iterations 68
DILUPBiCGStab:  Solving for ILambda_165_0, Initial residual = 1.56231798224e-15, Final residual = 9.36641854056e-61, No Iterations 61
DILUPBiCGStab:  Solving for ILambda_166_0, Initial residual = 1.49177178017e-15, Final residual = 5.27807322372e-62, No Iterations 55
DILUPBiCGStab:  Solving for ILambda_167_0, Initial residual = 1.0762687761e-15, Final residual = 5.76072920315e-61, No Iterations 35
DILUPBiCGStab:  Solving for ILambda_168_0, Initial residual = 1.02404892317e-15, Final residual = 3.9725746222e-61, No Iterations 2
DILUPBiCGStab:  Solving for ILambda_169_0, Initial residual = 1.30921013318e-15, Final residual = 6.01511042378e-61, No Iterations 2
DILUPBiCGStab:  Solving for ILambda_170_0, Initial residual = 1.3403886742e-15, Final residual = 1.94105822043e-74, No Iterations 2
DILUPBiCGStab:  Solving for ILambda_171_0, Initial residual = 1.40694713531e-15, Final residual = 7.7196818585e-61, No Iterations 2
DILUPBiCGStab:  Solving for ILambda_172_0, Initial residual = 1.44849107501e-15, Final residual = 1.2062413196e-75, No Iterations 2
DILUPBiCGStab:  Solving for ILambda_173_0, Initial residual = 1.35254029632e-15, Final residual = 3.18013683731e-74, No Iterations 2
DILUPBiCGStab:  Solving for ILambda_174_0, Initial residual = 1.31769345171e-15, Final residual = 6.09759460589e-76, No Iterations 2
DILUPBiCGStab:  Solving for ILambda_175_0, Initial residual = 1.27552593354e-15, Final residual = 9.95588611769e-61, No Iterations 2
DILUPBiCGStab:  Solving for ILambda_176_0, Initial residual = 1.32573113853e-15, Final residual = 3.36293818309e-74, No Iterations 2
DILUPBiCGStab:  Solving for ILambda_177_0, Initial residual = 1.20647048171e-15, Final residual = 4.65617283725e-61, No Iterations 2
DILUPBiCGStab:  Solving for ILambda_178_0, Initial residual = 1.21601217555e-15, Final residual = 8.22053163974e-61, No Iterations 2
DILUPBiCGStab:  Solving for ILambda_179_0, Initial residual = 9.34246485421e-16, Final residual = 1.03765645146e-72, No Iterations 2
DILUPBiCGStab:  Solving for ILambda_180_0, Initial residual = 1.1458004522e-15, Final residual = 2.61425982011e-61, No Iterations 36
DILUPBiCGStab:  Solving for ILambda_181_0, Initial residual = 1.62276239158e-15, Final residual = 1.91534950224e-61, No Iterations 54
DILUPBiCGStab:  Solving for ILambda_182_0, Initial residual = 1.8588286518e-15, Final residual = 9.53309001926e-61, No Iterations 60
DILUPBiCGStab:  Solving for ILambda_183_0, Initial residual = 1.91118782837e-15, Final residual = 3.85499911787e-61, No Iterations 69
DILUPBiCGStab:  Solving for ILambda_184_0, Initial residual = 1.91987050845e-15, Final residual = 5.84860488276e-61, No Iterations 72
DILUPBiCGStab:  Solving for ILambda_185_0, Initial residual = 1.93966275138e-15, Final residual = 2.92384740696e-61, No Iterations 73
DILUPBiCGStab:  Solving for ILambda_186_0, Initial residual = 1.92835637636e-15, Final residual = 6.00555367223e-61, No Iterations 78
DILUPBiCGStab:  Solving for ILambda_187_0, Initial residual = 2.10726425124e-15, Final residual = 7.57310940135e-61, No Iterations 70
DILUPBiCGStab:  Solving for ILambda_188_0, Initial residual = 1.94773931625e-15, Final residual = 3.09700899341e-61, No Iterations 68
DILUPBiCGStab:  Solving for ILambda_189_0, Initial residual = 1.59155223824e-15, Final residual = 3.98697913531e-61, No Iterations 63
DILUPBiCGStab:  Solving for ILambda_190_0, Initial residual = 1.81859471126e-15, Final residual = 9.79233862557e-61, No Iterations 51
DILUPBiCGStab:  Solving for ILambda_191_0, Initial residual = 9.71871262492e-16, Final residual = 3.36802596416e-61, No Iterations 38
DILUPBiCGStab:  Solving for ILambda_192_0, Initial residual = 3.25374500562e-16, Final residual = 3.34328110772e-61, No Iterations 21
DILUPBiCGStab:  Solving for ILambda_193_0, Initial residual = 3.42302705709e-16, Final residual = 5.42167872001e-61, No Iterations 20
DILUPBiCGStab:  Solving for ILambda_194_0, Initial residual = 3.54119976578e-16, Final residual = 6.78198300057e-62, No Iterations 20
DILUPBiCGStab:  Solving for ILambda_195_0, Initial residual = 2.63268277552e-16, Final residual = 6.08704703119e-62, No Iterations 22
DILUPBiCGStab:  Solving for ILambda_196_0, Initial residual = 2.59680024508e-16, Final residual = 3.96122727131e-61, No Iterations 21
DILUPBiCGStab:  Solving for ILambda_197_0, Initial residual = 2.48405261808e-16, Final residual = 1.42925571476e-61, No Iterations 20
DILUPBiCGStab:  Solving for ILambda_198_0, Initial residual = 2.65062595278e-16, Final residual = 9.83355974596e-63, No Iterations 20
DILUPBiCGStab:  Solving for ILambda_199_0, Initial residual = 2.63998292656e-16, Final residual = 7.78575239085e-62, No Iterations 22
DILUPBiCGStab:  Solving for ILambda_200_0, Initial residual = 3.01044997701e-16, Final residual = 1.7922068689e-61, No Iterations 24
DILUPBiCGStab:  Solving for ILambda_201_0, Initial residual = 3.91069486491e-16, Final residual = 3.00333553027e-61, No Iterations 22
DILUPBiCGStab:  Solving for ILambda_202_0, Initial residual = 3.87941332892e-16, Final residual = 4.1027477403e-62, No Iterations 20
DILUPBiCGStab:  Solving for ILambda_203_0, Initial residual = 3.44679047001e-16, Final residual = 1.53338290456e-61, No Iterations 21
DILUPBiCGStab:  Solving for ILambda_204_0, Initial residual = 3.3688087448e-16, Final residual = 4.95114814487e-61, No Iterations 35
DILUPBiCGStab:  Solving for ILambda_205_0, Initial residual = 3.87017883542e-16, Final residual = 8.95675517725e-61, No Iterations 49
DILUPBiCGStab:  Solving for ILambda_206_0, Initial residual = 4.90045869946e-16, Final residual = 1.33746578995e-61, No Iterations 58
DILUPBiCGStab:  Solving for ILambda_207_0, Initial residual = 4.53769970094e-16, Final residual = 2.74856003179e-61, No Iterations 65
DILUPBiCGStab:  Solving for ILambda_208_0, Initial residual = 3.2964248218e-16, Final residual = 2.97803897871e-61, No Iterations 72
DILUPBiCGStab:  Solving for ILambda_209_0, Initial residual = 3.9205507699e-16, Final residual = 7.53954918538e-61, No Iterations 73
DILUPBiCGStab:  Solving for ILambda_210_0, Initial residual = 2.87803706622e-16, Final residual = 1.48234945095e-61, No Iterations 76
DILUPBiCGStab:  Solving for ILambda_211_0, Initial residual = 3.81449207997e-16, Final residual = 6.39975890497e-61, No Iterations 72
DILUPBiCGStab:  Solving for ILambda_212_0, Initial residual = 4.80971923691e-16, Final residual = 5.98232225928e-61, No Iterations 67
DILUPBiCGStab:  Solving for ILambda_213_0, Initial residual = 4.76091708347e-16, Final residual = 3.3533462892e-61, No Iterations 58
DILUPBiCGStab:  Solving for ILambda_214_0, Initial residual = 4.38034046468e-16, Final residual = 5.76752240564e-61, No Iterations 49
DILUPBiCGStab:  Solving for ILambda_215_0, Initial residual = 3.62964924731e-16, Final residual = 2.48936770207e-62, No Iterations 35
DILUPBiCGStab:  Solving for ILambda_216_0, Initial residual = 3.56736788186e-16, Final residual = 1.93026421478e-61, No Iterations 2
DILUPBiCGStab:  Solving for ILambda_217_0, Initial residual = 3.75108325099e-16, Final residual = 7.80566736787e-62, No Iterations 2
DILUPBiCGStab:  Solving for ILambda_218_0, Initial residual = 3.82661310952e-16, Final residual = 4.5609884792e-74, No Iterations 2
DILUPBiCGStab:  Solving for ILambda_219_0, Initial residual = 3.08327940425e-16, Final residual = 1.03054644961e-61, No Iterations 2
DILUPBiCGStab:  Solving for ILambda_220_0, Initial residual = 2.68643773791e-16, Final residual = 3.14909328413e-75, No Iterations 2
DILUPBiCGStab:  Solving for ILambda_221_0, Initial residual = 2.40241253185e-16, Final residual = 4.16772820628e-61, No Iterations 2
DILUPBiCGStab:  Solving for ILambda_222_0, Initial residual = 2.31617463791e-16, Final residual = 4.41187750626e-61, No Iterations 2
DILUPBiCGStab:  Solving for ILambda_223_0, Initial residual = 2.67390817013e-16, Final residual = 1.02820553233e-61, No Iterations 2
DILUPBiCGStab:  Solving for ILambda_224_0, Initial residual = 2.76178913981e-16, Final residual = 5.67175628009e-62, No Iterations 2
DILUPBiCGStab:  Solving for ILambda_225_0, Initial residual = 3.42063318881e-16, Final residual = 7.4451027343e-62, No Iterations 2
DILUPBiCGStab:  Solving for ILambda_226_0, Initial residual = 3.44889115954e-16, Final residual = 1.30384088294e-61, No Iterations 2
DILUPBiCGStab:  Solving for ILambda_227_0, Initial residual = 3.34518427311e-16, Final residual = 1.4014482319e-61, No Iterations 2
DILUPBiCGStab:  Solving for ILambda_228_0, Initial residual = 3.76700413217e-16, Final residual = 4.88672998813e-61, No Iterations 33
DILUPBiCGStab:  Solving for ILambda_229_0, Initial residual = 4.51928934971e-16, Final residual = 2.87506942171e-61, No Iterations 50
DILUPBiCGStab:  Solving for ILambda_230_0, Initial residual = 4.64690305171e-16, Final residual = 7.26536687816e-62, No Iterations 62
DILUPBiCGStab:  Solving for ILambda_231_0, Initial residual = 4.11613477992e-16, Final residual = 7.08830069908e-61, No Iterations 65
DILUPBiCGStab:  Solving for ILambda_232_0, Initial residual = 3.35006315003e-16, Final residual = 7.5984080264e-61, No Iterations 71
DILUPBiCGStab:  Solving for ILambda_233_0, Initial residual = 5.161661214e-16, Final residual = 3.20778476052e-61, No Iterations 75
DILUPBiCGStab:  Solving for ILambda_234_0, Initial residual = 4.25499698601e-16, Final residual = 7.18723840804e-62, No Iterations 78
DILUPBiCGStab:  Solving for ILambda_235_0, Initial residual = 3.7289431561e-16, Final residual = 5.68812070145e-61, No Iterations 72
DILUPBiCGStab:  Solving for ILambda_236_0, Initial residual = 4.42028861967e-16, Final residual = 3.64497774826e-61, No Iterations 66
DILUPBiCGStab:  Solving for ILambda_237_0, Initial residual = 4.651838015e-16, Final residual = 6.60998767897e-61, No Iterations 61
DILUPBiCGStab:  Solving for ILambda_238_0, Initial residual = 3.9664300586e-16, Final residual = 3.96166236126e-61, No Iterations 50
DILUPBiCGStab:  Solving for ILambda_239_0, Initial residual = 3.40993535091e-16, Final residual = 1.87884215778e-63, No Iterations 37
DILUPBiCGStab:  Solving for ILambda_240_0, Initial residual = 9.08132671149e-17, Final residual = 8.13580698363e-62, No Iterations 18
DILUPBiCGStab:  Solving for ILambda_241_0, Initial residual = 9.83921291797e-17, Final residual = 3.14348479248e-62, No Iterations 18
DILUPBiCGStab:  Solving for ILambda_242_0, Initial residual = 9.82732324469e-17, Final residual = 3.19010149048e-61, No Iterations 17
DILUPBiCGStab:  Solving for ILambda_243_0, Initial residual = 1.33877051866e-16, Final residual = 3.20419906642e-62, No Iterations 18
DILUPBiCGStab:  Solving for ILambda_244_0, Initial residual = 1.39345791697e-16, Final residual = 1.31095968832e-62, No Iterations 18
DILUPBiCGStab:  Solving for ILambda_245_0, Initial residual = 1.47119649502e-16, Final residual = 1.49904883094e-61, No Iterations 18
DILUPBiCGStab:  Solving for ILambda_246_0, Initial residual = 1.46303401603e-16, Final residual = 2.02106255755e-61, No Iterations 20
DILUPBiCGStab:  Solving for ILambda_247_0, Initial residual = 1.5115442654e-16, Final residual = 1.38771047566e-61, No Iterations 19
DILUPBiCGStab:  Solving for ILambda_248_0, Initial residual = 1.4855714956e-16, Final residual = 4.56925306674e-61, No Iterations 18
DILUPBiCGStab:  Solving for ILambda_249_0, Initial residual = 1.13169422005e-16, Final residual = 1.16192866457e-64, No Iterations 18
DILUPBiCGStab:  Solving for ILambda_250_0, Initial residual = 1.17243682573e-16, Final residual = 4.18799811165e-62, No Iterations 17
DILUPBiCGStab:  Solving for ILambda_251_0, Initial residual = 1.17998904677e-16, Final residual = 4.04065583694e-61, No Iterations 17
DILUPBiCGStab:  Solving for ILambda_252_0, Initial residual = 9.92614041933e-17, Final residual = 1.40015556591e-61, No Iterations 33
DILUPBiCGStab:  Solving for ILambda_253_0, Initial residual = 1.18750334577e-16, Final residual = 9.24986139542e-61, No Iterations 46
DILUPBiCGStab:  Solving for ILambda_254_0, Initial residual = 1.37194656304e-16, Final residual = 3.19700852917e-61, No Iterations 58
DILUPBiCGStab:  Solving for ILambda_255_0, Initial residual = 1.56572561167e-16, Final residual = 4.91179206617e-61, No Iterations 65
DILUPBiCGStab:  Solving for ILambda_256_0, Initial residual = 1.61771895214e-16, Final residual = 4.43350593033e-61, No Iterations 68
DILUPBiCGStab:  Solving for ILambda_257_0, Initial residual = 1.80685844695e-16, Final residual = 6.38921866929e-61, No Iterations 71
DILUPBiCGStab:  Solving for ILambda_258_0, Initial residual = 1.63984247606e-16, Final residual = 9.93548441719e-61, No Iterations 72
DILUPBiCGStab:  Solving for ILambda_259_0, Initial residual = 1.92364206195e-16, Final residual = 7.26446833341e-61, No Iterations 72
DILUPBiCGStab:  Solving for ILambda_260_0, Initial residual = 1.82305211184e-16, Final residual = 2.66612948285e-61, No Iterations 65
DILUPBiCGStab:  Solving for ILambda_261_0, Initial residual = 1.65197274712e-16, Final residual = 5.17372106302e-61, No Iterations 57
DILUPBiCGStab:  Solving for ILambda_262_0, Initial residual = 1.23986953314e-16, Final residual = 4.72945468612e-61, No Iterations 47
DILUPBiCGStab:  Solving for ILambda_263_0, Initial residual = 1.09992511503e-16, Final residual = 6.01463958425e-61, No Iterations 32
DILUPBiCGStab:  Solving for ILambda_264_0, Initial residual = 1.07694882334e-16, Final residual = 1.88740580375e-62, No Iterations 2
DILUPBiCGStab:  Solving for ILambda_265_0, Initial residual = 1.12337686619e-16, Final residual = 4.59219547696e-62, No Iterations 2
DILUPBiCGStab:  Solving for ILambda_266_0, Initial residual = 1.14174387795e-16, Final residual = 9.73858996057e-63, No Iterations 2
DILUPBiCGStab:  Solving for ILambda_267_0, Initial residual = 1.48866166343e-16, Final residual = 6.87015482466e-63, No Iterations 2
DILUPBiCGStab:  Solving for ILambda_268_0, Initial residual = 1.51130589832e-16, Final residual = 1.30215245504e-62, No Iterations 2
DILUPBiCGStab:  Solving for ILambda_269_0, Initial residual = 1.44651530512e-16, Final residual = 1.75808194985e-62, No Iterations 2
DILUPBiCGStab:  Solving for ILambda_270_0, Initial residual = 1.44519918744e-16, Final residual = 3.65564687811e-62, No Iterations 2
DILUPBiCGStab:  Solving for ILambda_271_0, Initial residual = 1.408722014e-16, Final residual = 2.35935820124e-62, No Iterations 2
DILUPBiCGStab:  Solving for ILambda_272_0, Initial residual = 1.34642822032e-16, Final residual = 2.36592595994e-62, No Iterations 2
DILUPBiCGStab:  Solving for ILambda_273_0, Initial residual = 9.81944565897e-17, Final residual = 1.48756571283e-62, No Iterations 2
DILUPBiCGStab:  Solving for ILambda_274_0, Initial residual = 9.62786927508e-17, Final residual = 7.02461488251e-63, No Iterations 2
DILUPBiCGStab:  Solving for ILambda_275_0, Initial residual = 1.0229029129e-16, Final residual = 1.8219632057e-62, No Iterations 2
DILUPBiCGStab:  Solving for ILambda_276_0, Initial residual = 1.07948035817e-16, Final residual = 3.02761782948e-62, No Iterations 34
DILUPBiCGStab:  Solving for ILambda_277_0, Initial residual = 1.25039943059e-16, Final residual = 9.16757298702e-61, No Iterations 46
DILUPBiCGStab:  Solving for ILambda_278_0, Initial residual = 1.58699827985e-16, Final residual = 5.01100947666e-61, No Iterations 57
DILUPBiCGStab:  Solving for ILambda_279_0, Initial residual = 1.84030791239e-16, Final residual = 9.65350849275e-61, No Iterations 64
DILUPBiCGStab:  Solving for ILambda_280_0, Initial residual = 1.83671360456e-16, Final residual = 9.58890080882e-61, No Iterations 68
DILUPBiCGStab:  Solving for ILambda_281_0, Initial residual = 1.91911021945e-16, Final residual = 3.47243935519e-61, No Iterations 74
DILUPBiCGStab:  Solving for ILambda_282_0, Initial residual = 1.72516482374e-16, Final residual = 9.40500389737e-61, No Iterations 71
DILUPBiCGStab:  Solving for ILambda_283_0, Initial residual = 1.81928922624e-16, Final residual = 5.6207631038e-61, No Iterations 70
DILUPBiCGStab:  Solving for ILambda_284_0, Initial residual = 1.60197334087e-16, Final residual = 6.08355999052e-61, No Iterations 65
DILUPBiCGStab:  Solving for ILambda_285_0, Initial residual = 1.42634651869e-16, Final residual = 1.10184590239e-61, No Iterations 57
DILUPBiCGStab:  Solving for ILambda_286_0, Initial residual = 1.15342673274e-16, Final residual = 3.35741556472e-61, No Iterations 47
DILUPBiCGStab:  Solving for ILambda_287_0, Initial residual = 8.97848151567e-17, Final residual = 3.77042627785e-61, No Iterations 33
min/max(T) = 1000, 1000
ExecutionTime = 595.61 s  ClockTime = 596 s

writeObjects writeObjects1.writeObjects write:
    writing object a
    writing object qem
End

