/*---------------------------------------------------------------------------*\
| =========                 |                                                 |
| \\      /  F ield         | OpenFOAM: The Open Source CFD Toolbox           |
|  \\    /   O peration     | Version:  2306                                  |
|   \\  /    A nd           | Website:  www.openfoam.com                      |
|    \\/     M anipulation  |                                                 |
\*---------------------------------------------------------------------------*/
Build  : _fbf00d6b-20230626 OPENFOAM=2306 version=2306
Arch   : "LSB;label=32;scalar=64"
Exec   : fireRADFoam_MaCFP
Date   : Mar 12 2024
Time   : 19:27:53
Host   : pop-os
PID    : 172647
I/O    : uncollated
Case   : /home/rafay/Desktop/Study/Radiative_Heat_Transfer/Local_copy_RHT2324/01_Projects/02_Rafay/Case_1_q1D_SolidAngle/new_case3/th_4-ph_8/tau_1/res_1
nProcs : 1
trapFpe: Floating point exception trapping enabled (FOAM_SIGFPE).
fileModificationChecking : Monitoring run-time modified files using timeStampMaster (fileModificationSkew 5, maxFileModificationPolls 20)
allowSystemOperations : Allowing user-supplied system call operations

// * * * * * * * * * * * * * * * * * * * * * * * * * * * * * * * * * * * * * //
Create time

Create mesh for time = 0


PIMPLE: no residual control data found. Calculations will employ 10 corrector loops

Reading thermophysical properties

Selecting thermodynamics package 
{
    type            hePsiThermo;
    mixture         singleStepReactingMixture;
    transport       sutherland;
    thermo          janaf;
    energy          sensibleEnthalpy;
    equationOfState perfectGas;
    specie          specie;
}

Selecting chemistryReader foamChemistryReader
    elements not defined in "/home/rafay/Desktop/Study/Radiative_Heat_Transfer/Local_copy_RHT2324/01_Projects/02_Rafay/Case_1_q1D_SolidAngle/new_case3/th_4-ph_8/tau_1/res_1/constant/reactions"
Fuel heat of combustion :47168962.4726
stoichiometric air-fuel ratio :14.6914056505
stoichiometric oxygen-fuel ratio :3.42181919285
Maximum products mass concentrations:
    H2O: 0.0818486943001
    CO2: 0.199950099979
    N2: 0.718201205721
Creating component thermo properties:
    multi-component carrier - 6 species
    no liquid components
    no solid components
Creating field rho


Reading field U

Reading/calculating face flux field phi

Selecting radiationModel fvDOM
Selecting absorptionEmissionModel constantAbsorptionEmission
Selecting scatterModel none
Selecting sootModel none
fvDOM : Allocated 128 rays with average orientation:
	I0 : dAve : 	(0.00274192284156 0.0278392098 0.0490873852123) : omega : 	0.0575094490319 : d : 	(0.0375095356919 0.38084070704 0.923879532511)
	I1 : dAve : 	(0.00812039796756 0.0267693645798 0.0490873852123) : omega : 	0.0575094490319 : d : 	(0.111087136655 0.366205212247 0.923879532511)
	I2 : dAve : 	(0.0131868107536 0.0246707876912 0.0490873852123) : omega : 	0.0575094490319 : d : 	(0.180395721254 0.337496656517 0.923879532511)
	I3 : dAve : 	(0.0177464617977 0.0216241262672 0.0490873852123) : omega : 	0.0575094490319 : d : 	(0.242771799453 0.295818293547 0.923879532511)
	I4 : dAve : 	(0.0216241262672 0.0177464617977 0.0490873852123) : omega : 	0.0575094490319 : d : 	(0.295818293547 0.242771799453 0.923879532511)
	I5 : dAve : 	(0.0246707876912 0.0131868107536 0.0490873852123) : omega : 	0.0575094490319 : d : 	(0.337496656517 0.180395721254 0.923879532511)
	I6 : dAve : 	(0.0267693645798 0.00812039796756 0.0490873852123) : omega : 	0.0575094490319 : d : 	(0.366205212247 0.111087136655 0.923879532511)
	I7 : dAve : 	(0.0278392098 0.00274192284156 0.0490873852123) : omega : 	0.0575094490319 : d : 	(0.38084070704 0.0375095356919 0.923879532511)
	I8 : dAve : 	(0.0278392098 -0.00274192284156 0.0490873852123) : omega : 	0.0575094490319 : d : 	(0.38084070704 -0.0375095356919 0.923879532511)
	I9 : dAve : 	(0.0267693645798 -0.00812039796756 0.0490873852123) : omega : 	0.0575094490319 : d : 	(0.366205212247 -0.111087136655 0.923879532511)
	I10 : dAve : 	(0.0246707876912 -0.0131868107536 0.0490873852123) : omega : 	0.0575094490319 : d : 	(0.337496656517 -0.180395721254 0.923879532511)
	I11 : dAve : 	(0.0216241262672 -0.0177464617977 0.0490873852123) : omega : 	0.0575094490319 : d : 	(0.295818293547 -0.242771799453 0.923879532511)
	I12 : dAve : 	(0.0177464617977 -0.0216241262672 0.0490873852123) : omega : 	0.0575094490319 : d : 	(0.242771799453 -0.295818293547 0.923879532511)
	I13 : dAve : 	(0.0131868107536 -0.0246707876912 0.0490873852123) : omega : 	0.0575094490319 : d : 	(0.180395721254 -0.337496656517 0.923879532511)
	I14 : dAve : 	(0.00812039796756 -0.0267693645798 0.0490873852123) : omega : 	0.0575094490319 : d : 	(0.111087136655 -0.366205212247 0.923879532511)
	I15 : dAve : 	(0.00274192284156 -0.0278392098 0.0490873852123) : omega : 	0.0575094490319 : d : 	(0.0375095356919 -0.38084070704 0.923879532511)
	I16 : dAve : 	(-0.00274192284156 -0.0278392098 0.0490873852123) : omega : 	0.0575094490319 : d : 	(-0.0375095356919 -0.38084070704 0.923879532511)
	I17 : dAve : 	(-0.00812039796756 -0.0267693645798 0.0490873852123) : omega : 	0.0575094490319 : d : 	(-0.111087136655 -0.366205212247 0.923879532511)
	I18 : dAve : 	(-0.0131868107536 -0.0246707876912 0.0490873852123) : omega : 	0.0575094490319 : d : 	(-0.180395721254 -0.337496656517 0.923879532511)
	I19 : dAve : 	(-0.0177464617977 -0.0216241262672 0.0490873852123) : omega : 	0.0575094490319 : d : 	(-0.242771799453 -0.295818293547 0.923879532511)
	I20 : dAve : 	(-0.0216241262672 -0.0177464617977 0.0490873852123) : omega : 	0.0575094490319 : d : 	(-0.295818293547 -0.242771799453 0.923879532511)
	I21 : dAve : 	(-0.0246707876912 -0.0131868107536 0.0490873852123) : omega : 	0.0575094490319 : d : 	(-0.337496656517 -0.180395721254 0.923879532511)
	I22 : dAve : 	(-0.0267693645798 -0.00812039796756 0.0490873852123) : omega : 	0.0575094490319 : d : 	(-0.366205212247 -0.111087136655 0.923879532511)
	I23 : dAve : 	(-0.0278392098 -0.00274192284156 0.0490873852123) : omega : 	0.0575094490319 : d : 	(-0.38084070704 -0.0375095356919 0.923879532511)
	I24 : dAve : 	(-0.0278392098 0.00274192284156 0.0490873852123) : omega : 	0.0575094490319 : d : 	(-0.38084070704 0.0375095356919 0.923879532511)
	I25 : dAve : 	(-0.0267693645798 0.00812039796756 0.0490873852123) : omega : 	0.0575094490319 : d : 	(-0.366205212247 0.111087136655 0.923879532511)
	I26 : dAve : 	(-0.0246707876912 0.0131868107536 0.0490873852123) : omega : 	0.0575094490319 : d : 	(-0.337496656517 0.180395721254 0.923879532511)
	I27 : dAve : 	(-0.0216241262672 0.0177464617977 0.0490873852123) : omega : 	0.0575094490319 : d : 	(-0.295818293547 0.242771799453 0.923879532511)
	I28 : dAve : 	(-0.0177464617977 0.0216241262672 0.0490873852123) : omega : 	0.0575094490319 : d : 	(-0.242771799453 0.295818293547 0.923879532511)
	I29 : dAve : 	(-0.0131868107536 0.0246707876912 0.0490873852123) : omega : 	0.0575094490319 : d : 	(-0.180395721254 0.337496656517 0.923879532511)
	I30 : dAve : 	(-0.00812039796756 0.0267693645798 0.0490873852123) : omega : 	0.0575094490319 : d : 	(-0.111087136655 0.366205212247 0.923879532511)
	I31 : dAve : 	(-0.00274192284156 0.0278392098 0.0490873852123) : omega : 	0.0575094490319 : d : 	(-0.0375095356919 0.38084070704 0.923879532511)
	I32 : dAve : 	(0.0123492826399 0.125384370808 0.0490873852123) : omega : 	0.138840091817 : d : 	(0.0905560297858 0.91943080004 0.382683432365)
	I33 : dAve : 	(0.0365732719135 0.120565919754 0.0490873852123) : omega : 	0.138840091817 : d : 	(0.268188071917 0.884097590017 0.382683432365)
	I34 : dAve : 	(0.059391770858 0.111114188018 0.0490873852123) : omega : 	0.138840091817 : d : 	(0.435513796846 0.814789005418 0.382683432365)
	I35 : dAve : 	(0.0799278773557 0.0973924003507 0.0490873852123) : omega : 	0.138840091817 : d : 	(0.586102970801 0.714168536279 0.382683432365)
	I36 : dAve : 	(0.0973924003507 0.0799278773557 0.0490873852123) : omega : 	0.138840091817 : d : 	(0.714168536279 0.586102970801 0.382683432365)
	I37 : dAve : 	(0.111114188018 0.059391770858 0.0490873852123) : omega : 	0.138840091817 : d : 	(0.814789005418 0.435513796846 0.382683432365)
	I38 : dAve : 	(0.120565919754 0.0365732719135 0.0490873852123) : omega : 	0.138840091817 : d : 	(0.884097590017 0.268188071917 0.382683432365)
	I39 : dAve : 	(0.125384370808 0.0123492826399 0.0490873852123) : omega : 	0.138840091817 : d : 	(0.91943080004 0.0905560297858 0.382683432365)
	I40 : dAve : 	(0.125384370808 -0.0123492826399 0.0490873852123) : omega : 	0.138840091817 : d : 	(0.91943080004 -0.0905560297858 0.382683432365)
	I41 : dAve : 	(0.120565919754 -0.0365732719135 0.0490873852123) : omega : 	0.138840091817 : d : 	(0.884097590017 -0.268188071917 0.382683432365)
	I42 : dAve : 	(0.111114188018 -0.059391770858 0.0490873852123) : omega : 	0.138840091817 : d : 	(0.814789005418 -0.435513796846 0.382683432365)
	I43 : dAve : 	(0.0973924003507 -0.0799278773557 0.0490873852123) : omega : 	0.138840091817 : d : 	(0.714168536279 -0.586102970801 0.382683432365)
	I44 : dAve : 	(0.0799278773557 -0.0973924003507 0.0490873852123) : omega : 	0.138840091817 : d : 	(0.586102970801 -0.714168536279 0.382683432365)
	I45 : dAve : 	(0.059391770858 -0.111114188018 0.0490873852123) : omega : 	0.138840091817 : d : 	(0.435513796846 -0.814789005418 0.382683432365)
	I46 : dAve : 	(0.0365732719135 -0.120565919754 0.0490873852123) : omega : 	0.138840091817 : d : 	(0.268188071917 -0.884097590017 0.382683432365)
	I47 : dAve : 	(0.0123492826399 -0.125384370808 0.0490873852123) : omega : 	0.138840091817 : d : 	(0.0905560297858 -0.91943080004 0.382683432365)
	I48 : dAve : 	(-0.0123492826399 -0.125384370808 0.0490873852123) : omega : 	0.138840091817 : d : 	(-0.0905560297858 -0.91943080004 0.382683432365)
	I49 : dAve : 	(-0.0365732719135 -0.120565919754 0.0490873852123) : omega : 	0.138840091817 : d : 	(-0.268188071917 -0.884097590017 0.382683432365)
	I50 : dAve : 	(-0.059391770858 -0.111114188018 0.0490873852123) : omega : 	0.138840091817 : d : 	(-0.435513796846 -0.814789005418 0.382683432365)
	I51 : dAve : 	(-0.0799278773557 -0.0973924003507 0.0490873852123) : omega : 	0.138840091817 : d : 	(-0.586102970801 -0.714168536279 0.382683432365)
	I52 : dAve : 	(-0.0973924003507 -0.0799278773557 0.0490873852123) : omega : 	0.138840091817 : d : 	(-0.714168536279 -0.586102970801 0.382683432365)
	I53 : dAve : 	(-0.111114188018 -0.059391770858 0.0490873852123) : omega : 	0.138840091817 : d : 	(-0.814789005418 -0.435513796846 0.382683432365)
	I54 : dAve : 	(-0.120565919754 -0.0365732719135 0.0490873852123) : omega : 	0.138840091817 : d : 	(-0.884097590017 -0.268188071917 0.382683432365)
	I55 : dAve : 	(-0.125384370808 -0.0123492826399 0.0490873852123) : omega : 	0.138840091817 : d : 	(-0.91943080004 -0.0905560297858 0.382683432365)
	I56 : dAve : 	(-0.125384370808 0.0123492826399 0.0490873852123) : omega : 	0.138840091817 : d : 	(-0.91943080004 0.0905560297858 0.382683432365)
	I57 : dAve : 	(-0.120565919754 0.0365732719135 0.0490873852123) : omega : 	0.138840091817 : d : 	(-0.884097590017 0.268188071917 0.382683432365)
	I58 : dAve : 	(-0.111114188018 0.059391770858 0.0490873852123) : omega : 	0.138840091817 : d : 	(-0.814789005418 0.435513796846 0.382683432365)
	I59 : dAve : 	(-0.0973924003507 0.0799278773557 0.0490873852123) : omega : 	0.138840091817 : d : 	(-0.714168536279 0.586102970801 0.382683432365)
	I60 : dAve : 	(-0.0799278773557 0.0973924003507 0.0490873852123) : omega : 	0.138840091817 : d : 	(-0.586102970801 0.714168536279 0.382683432365)
	I61 : dAve : 	(-0.059391770858 0.111114188018 0.0490873852123) : omega : 	0.138840091817 : d : 	(-0.435513796846 0.814789005418 0.382683432365)
	I62 : dAve : 	(-0.0365732719135 0.120565919754 0.0490873852123) : omega : 	0.138840091817 : d : 	(-0.268188071917 0.884097590017 0.382683432365)
	I63 : dAve : 	(-0.0123492826399 0.125384370808 0.0490873852123) : omega : 	0.138840091817 : d : 	(-0.0905560297858 0.91943080004 0.382683432365)
	I64 : dAve : 	(0.0123492826399 0.125384370808 -0.0490873852123) : omega : 	0.138840091817 : d : 	(0.0905560297858 0.91943080004 -0.382683432365)
	I65 : dAve : 	(0.0365732719135 0.120565919754 -0.0490873852123) : omega : 	0.138840091817 : d : 	(0.268188071917 0.884097590017 -0.382683432365)
	I66 : dAve : 	(0.059391770858 0.111114188018 -0.0490873852123) : omega : 	0.138840091817 : d : 	(0.435513796846 0.814789005418 -0.382683432365)
	I67 : dAve : 	(0.0799278773557 0.0973924003507 -0.0490873852123) : omega : 	0.138840091817 : d : 	(0.586102970801 0.714168536279 -0.382683432365)
	I68 : dAve : 	(0.0973924003507 0.0799278773557 -0.0490873852123) : omega : 	0.138840091817 : d : 	(0.714168536279 0.586102970801 -0.382683432365)
	I69 : dAve : 	(0.111114188018 0.059391770858 -0.0490873852123) : omega : 	0.138840091817 : d : 	(0.814789005418 0.435513796846 -0.382683432365)
	I70 : dAve : 	(0.120565919754 0.0365732719135 -0.0490873852123) : omega : 	0.138840091817 : d : 	(0.884097590017 0.268188071917 -0.382683432365)
	I71 : dAve : 	(0.125384370808 0.0123492826399 -0.0490873852123) : omega : 	0.138840091817 : d : 	(0.91943080004 0.0905560297858 -0.382683432365)
	I72 : dAve : 	(0.125384370808 -0.0123492826399 -0.0490873852123) : omega : 	0.138840091817 : d : 	(0.91943080004 -0.0905560297858 -0.382683432365)
	I73 : dAve : 	(0.120565919754 -0.0365732719135 -0.0490873852123) : omega : 	0.138840091817 : d : 	(0.884097590017 -0.268188071917 -0.382683432365)
	I74 : dAve : 	(0.111114188018 -0.059391770858 -0.0490873852123) : omega : 	0.138840091817 : d : 	(0.814789005418 -0.435513796846 -0.382683432365)
	I75 : dAve : 	(0.0973924003507 -0.0799278773557 -0.0490873852123) : omega : 	0.138840091817 : d : 	(0.714168536279 -0.586102970801 -0.382683432365)
	I76 : dAve : 	(0.0799278773557 -0.0973924003507 -0.0490873852123) : omega : 	0.138840091817 : d : 	(0.586102970801 -0.714168536279 -0.382683432365)
	I77 : dAve : 	(0.059391770858 -0.111114188018 -0.0490873852123) : omega : 	0.138840091817 : d : 	(0.435513796846 -0.814789005418 -0.382683432365)
	I78 : dAve : 	(0.0365732719135 -0.120565919754 -0.0490873852123) : omega : 	0.138840091817 : d : 	(0.268188071917 -0.884097590017 -0.382683432365)
	I79 : dAve : 	(0.0123492826399 -0.125384370808 -0.0490873852123) : omega : 	0.138840091817 : d : 	(0.0905560297858 -0.91943080004 -0.382683432365)
	I80 : dAve : 	(-0.0123492826399 -0.125384370808 -0.0490873852123) : omega : 	0.138840091817 : d : 	(-0.0905560297858 -0.91943080004 -0.382683432365)
	I81 : dAve : 	(-0.0365732719135 -0.120565919754 -0.0490873852123) : omega : 	0.138840091817 : d : 	(-0.268188071917 -0.884097590017 -0.382683432365)
	I82 : dAve : 	(-0.059391770858 -0.111114188018 -0.0490873852123) : omega : 	0.138840091817 : d : 	(-0.435513796846 -0.814789005418 -0.382683432365)
	I83 : dAve : 	(-0.0799278773557 -0.0973924003507 -0.0490873852123) : omega : 	0.138840091817 : d : 	(-0.586102970801 -0.714168536279 -0.382683432365)
	I84 : dAve : 	(-0.0973924003507 -0.0799278773557 -0.0490873852123) : omega : 	0.138840091817 : d : 	(-0.714168536279 -0.586102970801 -0.382683432365)
	I85 : dAve : 	(-0.111114188018 -0.059391770858 -0.0490873852123) : omega : 	0.138840091817 : d : 	(-0.814789005418 -0.435513796846 -0.382683432365)
	I86 : dAve : 	(-0.120565919754 -0.0365732719135 -0.0490873852123) : omega : 	0.138840091817 : d : 	(-0.884097590017 -0.268188071917 -0.382683432365)
	I87 : dAve : 	(-0.125384370808 -0.0123492826399 -0.0490873852123) : omega : 	0.138840091817 : d : 	(-0.91943080004 -0.0905560297858 -0.382683432365)
	I88 : dAve : 	(-0.125384370808 0.0123492826399 -0.0490873852123) : omega : 	0.138840091817 : d : 	(-0.91943080004 0.0905560297858 -0.382683432365)
	I89 : dAve : 	(-0.120565919754 0.0365732719135 -0.0490873852123) : omega : 	0.138840091817 : d : 	(-0.884097590017 0.268188071917 -0.382683432365)
	I90 : dAve : 	(-0.111114188018 0.059391770858 -0.0490873852123) : omega : 	0.138840091817 : d : 	(-0.814789005418 0.435513796846 -0.382683432365)
	I91 : dAve : 	(-0.0973924003507 0.0799278773557 -0.0490873852123) : omega : 	0.138840091817 : d : 	(-0.714168536279 0.586102970801 -0.382683432365)
	I92 : dAve : 	(-0.0799278773557 0.0973924003507 -0.0490873852123) : omega : 	0.138840091817 : d : 	(-0.586102970801 0.714168536279 -0.382683432365)
	I93 : dAve : 	(-0.059391770858 0.111114188018 -0.0490873852123) : omega : 	0.138840091817 : d : 	(-0.435513796846 0.814789005418 -0.382683432365)
	I94 : dAve : 	(-0.0365732719135 0.120565919754 -0.0490873852123) : omega : 	0.138840091817 : d : 	(-0.268188071917 0.884097590017 -0.382683432365)
	I95 : dAve : 	(-0.0123492826399 0.125384370808 -0.0490873852123) : omega : 	0.138840091817 : d : 	(-0.0905560297858 0.91943080004 -0.382683432365)
	I96 : dAve : 	(0.00274192284156 0.0278392098 -0.0490873852123) : omega : 	0.0575094490319 : d : 	(0.0375095356919 0.38084070704 -0.923879532511)
	I97 : dAve : 	(0.00812039796756 0.0267693645798 -0.0490873852123) : omega : 	0.0575094490319 : d : 	(0.111087136655 0.366205212247 -0.923879532511)
	I98 : dAve : 	(0.0131868107536 0.0246707876912 -0.0490873852123) : omega : 	0.0575094490319 : d : 	(0.180395721254 0.337496656517 -0.923879532511)
	I99 : dAve : 	(0.0177464617977 0.0216241262672 -0.0490873852123) : omega : 	0.0575094490319 : d : 	(0.242771799453 0.295818293547 -0.923879532511)
	I100 : dAve : 	(0.0216241262672 0.0177464617977 -0.0490873852123) : omega : 	0.0575094490319 : d : 	(0.295818293547 0.242771799453 -0.923879532511)
	I101 : dAve : 	(0.0246707876912 0.0131868107536 -0.0490873852123) : omega : 	0.0575094490319 : d : 	(0.337496656517 0.180395721254 -0.923879532511)
	I102 : dAve : 	(0.0267693645798 0.00812039796756 -0.0490873852123) : omega : 	0.0575094490319 : d : 	(0.366205212247 0.111087136655 -0.923879532511)
	I103 : dAve : 	(0.0278392098 0.00274192284156 -0.0490873852123) : omega : 	0.0575094490319 : d : 	(0.38084070704 0.0375095356919 -0.923879532511)
	I104 : dAve : 	(0.0278392098 -0.00274192284156 -0.0490873852123) : omega : 	0.0575094490319 : d : 	(0.38084070704 -0.0375095356919 -0.923879532511)
	I105 : dAve : 	(0.0267693645798 -0.00812039796756 -0.0490873852123) : omega : 	0.0575094490319 : d : 	(0.366205212247 -0.111087136655 -0.923879532511)
	I106 : dAve : 	(0.0246707876912 -0.0131868107536 -0.0490873852123) : omega : 	0.0575094490319 : d : 	(0.337496656517 -0.180395721254 -0.923879532511)
	I107 : dAve : 	(0.0216241262672 -0.0177464617977 -0.0490873852123) : omega : 	0.0575094490319 : d : 	(0.295818293547 -0.242771799453 -0.923879532511)
	I108 : dAve : 	(0.0177464617977 -0.0216241262672 -0.0490873852123) : omega : 	0.0575094490319 : d : 	(0.242771799453 -0.295818293547 -0.923879532511)
	I109 : dAve : 	(0.0131868107536 -0.0246707876912 -0.0490873852123) : omega : 	0.0575094490319 : d : 	(0.180395721254 -0.337496656517 -0.923879532511)
	I110 : dAve : 	(0.00812039796756 -0.0267693645798 -0.0490873852123) : omega : 	0.0575094490319 : d : 	(0.111087136655 -0.366205212247 -0.923879532511)
	I111 : dAve : 	(0.00274192284156 -0.0278392098 -0.0490873852123) : omega : 	0.0575094490319 : d : 	(0.0375095356919 -0.38084070704 -0.923879532511)
	I112 : dAve : 	(-0.00274192284156 -0.0278392098 -0.0490873852123) : omega : 	0.0575094490319 : d : 	(-0.0375095356919 -0.38084070704 -0.923879532511)
	I113 : dAve : 	(-0.00812039796756 -0.0267693645798 -0.0490873852123) : omega : 	0.0575094490319 : d : 	(-0.111087136655 -0.366205212247 -0.923879532511)
	I114 : dAve : 	(-0.0131868107536 -0.0246707876912 -0.0490873852123) : omega : 	0.0575094490319 : d : 	(-0.180395721254 -0.337496656517 -0.923879532511)
	I115 : dAve : 	(-0.0177464617977 -0.0216241262672 -0.0490873852123) : omega : 	0.0575094490319 : d : 	(-0.242771799453 -0.295818293547 -0.923879532511)
	I116 : dAve : 	(-0.0216241262672 -0.0177464617977 -0.0490873852123) : omega : 	0.0575094490319 : d : 	(-0.295818293547 -0.242771799453 -0.923879532511)
	I117 : dAve : 	(-0.0246707876912 -0.0131868107536 -0.0490873852123) : omega : 	0.0575094490319 : d : 	(-0.337496656517 -0.180395721254 -0.923879532511)
	I118 : dAve : 	(-0.0267693645798 -0.00812039796756 -0.0490873852123) : omega : 	0.0575094490319 : d : 	(-0.366205212247 -0.111087136655 -0.923879532511)
	I119 : dAve : 	(-0.0278392098 -0.00274192284156 -0.0490873852123) : omega : 	0.0575094490319 : d : 	(-0.38084070704 -0.0375095356919 -0.923879532511)
	I120 : dAve : 	(-0.0278392098 0.00274192284156 -0.0490873852123) : omega : 	0.0575094490319 : d : 	(-0.38084070704 0.0375095356919 -0.923879532511)
	I121 : dAve : 	(-0.0267693645798 0.00812039796756 -0.0490873852123) : omega : 	0.0575094490319 : d : 	(-0.366205212247 0.111087136655 -0.923879532511)
	I122 : dAve : 	(-0.0246707876912 0.0131868107536 -0.0490873852123) : omega : 	0.0575094490319 : d : 	(-0.337496656517 0.180395721254 -0.923879532511)
	I123 : dAve : 	(-0.0216241262672 0.0177464617977 -0.0490873852123) : omega : 	0.0575094490319 : d : 	(-0.295818293547 0.242771799453 -0.923879532511)
	I124 : dAve : 	(-0.0177464617977 0.0216241262672 -0.0490873852123) : omega : 	0.0575094490319 : d : 	(-0.242771799453 0.295818293547 -0.923879532511)
	I125 : dAve : 	(-0.0131868107536 0.0246707876912 -0.0490873852123) : omega : 	0.0575094490319 : d : 	(-0.180395721254 0.337496656517 -0.923879532511)
	I126 : dAve : 	(-0.00812039796756 0.0267693645798 -0.0490873852123) : omega : 	0.0575094490319 : d : 	(-0.111087136655 0.366205212247 -0.923879532511)
	I127 : dAve : 	(-0.00274192284156 0.0278392098 -0.0490873852123) : omega : 	0.0575094490319 : d : 	(-0.0375095356919 0.38084070704 -0.923879532511)
Total omega : 12.5663706144

Courant Number mean: 0 max: 0

Starting time loop

Sampled set:
    data -> csv

Sampled set:
    data -> csv

Sampled surface:
    yNormal -> ensight
        sampledCuttingPlane: yNormal : plane:(0 1 0) (0 0 0) offsets:(0)

Sampled surface:
    zNormal -> ensight
        sampledCuttingPlane: zNormal : plane:(0 0 1) (0 0 0) offsets:(0)

Sampled surface:
    patchAll -> ensight
        sampledPatch: patchAll : patches:(".*WW.*")

deltaT = 1
Time = 1

PIMPLE: iteration 1
Radiation solver iter: 0
DILUPBiCGStab:  Solving for ILambda_0_0, Initial residual = 1, Final residual = 2.63091042202e-63, No Iterations 2
DILUPBiCGStab:  Solving for ILambda_1_0, Initial residual = 1, Final residual = 5.64633917567e-63, No Iterations 2
DILUPBiCGStab:  Solving for ILambda_2_0, Initial residual = 1, Final residual = 1.19148215248e-63, No Iterations 2
DILUPBiCGStab:  Solving for ILambda_3_0, Initial residual = 1, Final residual = 1.32652729792e-63, No Iterations 2
DILUPBiCGStab:  Solving for ILambda_4_0, Initial residual = 1, Final residual = 7.13206848567e-64, No Iterations 2
DILUPBiCGStab:  Solving for ILambda_5_0, Initial residual = 1, Final residual = 1.78821151504e-63, No Iterations 2
DILUPBiCGStab:  Solving for ILambda_6_0, Initial residual = 1, Final residual = 5.9528807531e-64, No Iterations 2
DILUPBiCGStab:  Solving for ILambda_7_0, Initial residual = 1, Final residual = 9.81816290348e-64, No Iterations 2
DILUPBiCGStab:  Solving for ILambda_8_0, Initial residual = 1, Final residual = 5.7091654691e-62, No Iterations 21
DILUPBiCGStab:  Solving for ILambda_9_0, Initial residual = 1, Final residual = 3.46434549668e-61, No Iterations 23
DILUPBiCGStab:  Solving for ILambda_10_0, Initial residual = 1, Final residual = 2.80724956388e-61, No Iterations 25
DILUPBiCGStab:  Solving for ILambda_11_0, Initial residual = 1, Final residual = 1.50597046233e-61, No Iterations 26
DILUPBiCGStab:  Solving for ILambda_12_0, Initial residual = 1, Final residual = 1.4159059354e-61, No Iterations 26
DILUPBiCGStab:  Solving for ILambda_13_0, Initial residual = 1, Final residual = 7.44900555855e-61, No Iterations 25
DILUPBiCGStab:  Solving for ILambda_14_0, Initial residual = 1, Final residual = 1.47658793726e-61, No Iterations 23
DILUPBiCGStab:  Solving for ILambda_15_0, Initial residual = 1, Final residual = 3.58193016241e-62, No Iterations 21
DILUPBiCGStab:  Solving for ILambda_16_0, Initial residual = 1, Final residual = 4.60588111021e-61, No Iterations 16
DILUPBiCGStab:  Solving for ILambda_17_0, Initial residual = 1, Final residual = 1.7490361824e-65, No Iterations 15
DILUPBiCGStab:  Solving for ILambda_18_0, Initial residual = 1, Final residual = 2.15809266788e-61, No Iterations 14
DILUPBiCGStab:  Solving for ILambda_19_0, Initial residual = 1, Final residual = 4.87401282562e-61, No Iterations 15
DILUPBiCGStab:  Solving for ILambda_20_0, Initial residual = 1, Final residual = 2.01257980384e-61, No Iterations 16
DILUPBiCGStab:  Solving for ILambda_21_0, Initial residual = 1, Final residual = 3.16025058806e-62, No Iterations 17
DILUPBiCGStab:  Solving for ILambda_22_0, Initial residual = 1, Final residual = 5.10502688417e-62, No Iterations 18
DILUPBiCGStab:  Solving for ILambda_23_0, Initial residual = 1, Final residual = 6.37385891113e-62, No Iterations 15
DILUPBiCGStab:  Solving for ILambda_24_0, Initial residual = 1, Final residual = 3.44936084992e-62, No Iterations 21
DILUPBiCGStab:  Solving for ILambda_25_0, Initial residual = 1, Final residual = 6.99703969737e-62, No Iterations 23
DILUPBiCGStab:  Solving for ILambda_26_0, Initial residual = 1, Final residual = 1.7739168249e-61, No Iterations 26
DILUPBiCGStab:  Solving for ILambda_27_0, Initial residual = 1, Final residual = 1.51270553904e-61, No Iterations 26
DILUPBiCGStab:  Solving for ILambda_28_0, Initial residual = 1, Final residual = 9.58158785607e-62, No Iterations 26
DILUPBiCGStab:  Solving for ILambda_29_0, Initial residual = 1, Final residual = 1.23009159081e-61, No Iterations 25
DILUPBiCGStab:  Solving for ILambda_30_0, Initial residual = 1, Final residual = 1.61317750727e-61, No Iterations 23
DILUPBiCGStab:  Solving for ILambda_31_0, Initial residual = 1, Final residual = 5.70919335614e-62, No Iterations 21
DILUPBiCGStab:  Solving for ILambda_32_0, Initial residual = 1, Final residual = 4.94722230487e-63, No Iterations 2
DILUPBiCGStab:  Solving for ILambda_33_0, Initial residual = 1, Final residual = 2.86288413799e-63, No Iterations 2
DILUPBiCGStab:  Solving for ILambda_34_0, Initial residual = 1, Final residual = 4.96359438901e-63, No Iterations 2
DILUPBiCGStab:  Solving for ILambda_35_0, Initial residual = 1, Final residual = 1.18839653131e-63, No Iterations 2
DILUPBiCGStab:  Solving for ILambda_36_0, Initial residual = 1, Final residual = 2.95230411881e-63, No Iterations 2
DILUPBiCGStab:  Solving for ILambda_37_0, Initial residual = 1, Final residual = 5.08582598742e-63, No Iterations 2
DILUPBiCGStab:  Solving for ILambda_38_0, Initial residual = 1, Final residual = 2.37523267043e-63, No Iterations 2
DILUPBiCGStab:  Solving for ILambda_39_0, Initial residual = 1, Final residual = 1.67665587701e-62, No Iterations 2
DILUPBiCGStab:  Solving for ILambda_40_0, Initial residual = 1, Final residual = 5.83048856551e-62, No Iterations 23
DILUPBiCGStab:  Solving for ILambda_41_0, Initial residual = 1, Final residual = 7.08045032513e-61, No Iterations 27
DILUPBiCGStab:  Solving for ILambda_42_0, Initial residual = 1, Final residual = 2.92560982605e-61, No Iterations 28
DILUPBiCGStab:  Solving for ILambda_43_0, Initial residual = 1, Final residual = 5.22853732588e-62, No Iterations 30
DILUPBiCGStab:  Solving for ILambda_44_0, Initial residual = 1, Final residual = 1.26445123921e-61, No Iterations 30
DILUPBiCGStab:  Solving for ILambda_45_0, Initial residual = 1, Final residual = 6.3278834898e-62, No Iterations 29
DILUPBiCGStab:  Solving for ILambda_46_0, Initial residual = 1, Final residual = 2.42862850411e-61, No Iterations 27
DILUPBiCGStab:  Solving for ILambda_47_0, Initial residual = 1, Final residual = 5.48497007838e-61, No Iterations 22
DILUPBiCGStab:  Solving for ILambda_48_0, Initial residual = 1, Final residual = 2.71128445874e-61, No Iterations 18
DILUPBiCGStab:  Solving for ILambda_49_0, Initial residual = 1, Final residual = 6.42491855632e-61, No Iterations 13
DILUPBiCGStab:  Solving for ILambda_50_0, Initial residual = 1, Final residual = 9.94302642486e-62, No Iterations 17
DILUPBiCGStab:  Solving for ILambda_51_0, Initial residual = 1, Final residual = 4.25334554089e-62, No Iterations 16
DILUPBiCGStab:  Solving for ILambda_52_0, Initial residual = 1, Final residual = 1.95512480129e-61, No Iterations 19
DILUPBiCGStab:  Solving for ILambda_53_0, Initial residual = 1, Final residual = 4.55208197093e-61, No Iterations 18
DILUPBiCGStab:  Solving for ILambda_54_0, Initial residual = 1, Final residual = 2.76985193785e-61, No Iterations 16
DILUPBiCGStab:  Solving for ILambda_55_0, Initial residual = 1, Final residual = 7.561233061e-61, No Iterations 20
DILUPBiCGStab:  Solving for ILambda_56_0, Initial residual = 1, Final residual = 3.38869307868e-61, No Iterations 22
DILUPBiCGStab:  Solving for ILambda_57_0, Initial residual = 1, Final residual = 1.15239171763e-61, No Iterations 27
DILUPBiCGStab:  Solving for ILambda_58_0, Initial residual = 1, Final residual = 5.12331170426e-61, No Iterations 29
DILUPBiCGStab:  Solving for ILambda_59_0, Initial residual = 1, Final residual = 3.06296913139e-61, No Iterations 30
DILUPBiCGStab:  Solving for ILambda_60_0, Initial residual = 1, Final residual = 1.71234099709e-61, No Iterations 30
DILUPBiCGStab:  Solving for ILambda_61_0, Initial residual = 1, Final residual = 4.89082081961e-61, No Iterations 28
DILUPBiCGStab:  Solving for ILambda_62_0, Initial residual = 1, Final residual = 4.31265975198e-61, No Iterations 27
DILUPBiCGStab:  Solving for ILambda_63_0, Initial residual = 1, Final residual = 1.25059341089e-61, No Iterations 23
DILUPBiCGStab:  Solving for ILambda_64_0, Initial residual = 1, Final residual = 1.59813228904e-63, No Iterations 18
DILUPBiCGStab:  Solving for ILambda_65_0, Initial residual = 1, Final residual = 1.18714876927e-63, No Iterations 15
DILUPBiCGStab:  Solving for ILambda_66_0, Initial residual = 1, Final residual = 2.517392245e-61, No Iterations 18
DILUPBiCGStab:  Solving for ILambda_67_0, Initial residual = 1, Final residual = 5.70796535419e-61, No Iterations 17
DILUPBiCGStab:  Solving for ILambda_68_0, Initial residual = 1, Final residual = 1.16929801738e-61, No Iterations 17
DILUPBiCGStab:  Solving for ILambda_69_0, Initial residual = 1, Final residual = 2.12922960585e-61, No Iterations 20
DILUPBiCGStab:  Solving for ILambda_70_0, Initial residual = 1, Final residual = 3.29401622342e-61, No Iterations 18
DILUPBiCGStab:  Solving for ILambda_71_0, Initial residual = 1, Final residual = 2.45292894543e-62, No Iterations 19
DILUPBiCGStab:  Solving for ILambda_72_0, Initial residual = 1, Final residual = 1.06348428889e-61, No Iterations 23
DILUPBiCGStab:  Solving for ILambda_73_0, Initial residual = 1, Final residual = 5.75357791223e-62, No Iterations 28
DILUPBiCGStab:  Solving for ILambda_74_0, Initial residual = 1, Final residual = 3.72385363529e-61, No Iterations 29
DILUPBiCGStab:  Solving for ILambda_75_0, Initial residual = 1, Final residual = 9.45586671996e-61, No Iterations 31
DILUPBiCGStab:  Solving for ILambda_76_0, Initial residual = 1, Final residual = 7.35831161581e-61, No Iterations 30
DILUPBiCGStab:  Solving for ILambda_77_0, Initial residual = 1, Final residual = 8.60225163576e-62, No Iterations 28
DILUPBiCGStab:  Solving for ILambda_78_0, Initial residual = 1, Final residual = 5.24211515443e-62, No Iterations 27
DILUPBiCGStab:  Solving for ILambda_79_0, Initial residual = 1, Final residual = 2.43381488305e-62, No Iterations 23
DILUPBiCGStab:  Solving for ILambda_80_0, Initial residual = 1, Final residual = 1.07505614231e-62, No Iterations 2
DILUPBiCGStab:  Solving for ILambda_81_0, Initial residual = 1, Final residual = 3.26925664375e-63, No Iterations 2
DILUPBiCGStab:  Solving for ILambda_82_0, Initial residual = 1, Final residual = 9.04861693041e-63, No Iterations 2
DILUPBiCGStab:  Solving for ILambda_83_0, Initial residual = 1, Final residual = 8.66629716251e-63, No Iterations 2
DILUPBiCGStab:  Solving for ILambda_84_0, Initial residual = 1, Final residual = 3.86864114124e-63, No Iterations 2
DILUPBiCGStab:  Solving for ILambda_85_0, Initial residual = 1, Final residual = 2.34421533664e-62, No Iterations 2
DILUPBiCGStab:  Solving for ILambda_86_0, Initial residual = 1, Final residual = 3.18648653816e-63, No Iterations 2
DILUPBiCGStab:  Solving for ILambda_87_0, Initial residual = 1, Final residual = 6.62582946614e-63, No Iterations 2
DILUPBiCGStab:  Solving for ILambda_88_0, Initial residual = 1, Final residual = 2.09509048562e-62, No Iterations 23
DILUPBiCGStab:  Solving for ILambda_89_0, Initial residual = 1, Final residual = 7.09426462181e-61, No Iterations 27
DILUPBiCGStab:  Solving for ILambda_90_0, Initial residual = 1, Final residual = 9.98169986152e-62, No Iterations 28
DILUPBiCGStab:  Solving for ILambda_91_0, Initial residual = 1, Final residual = 6.23632909333e-61, No Iterations 30
DILUPBiCGStab:  Solving for ILambda_92_0, Initial residual = 1, Final residual = 5.13185911714e-61, No Iterations 31
DILUPBiCGStab:  Solving for ILambda_93_0, Initial residual = 1, Final residual = 4.66774608344e-61, No Iterations 29
DILUPBiCGStab:  Solving for ILambda_94_0, Initial residual = 1, Final residual = 2.49924255759e-61, No Iterations 28
DILUPBiCGStab:  Solving for ILambda_95_0, Initial residual = 1, Final residual = 4.79722487489e-62, No Iterations 23
DILUPBiCGStab:  Solving for ILambda_96_0, Initial residual = 1, Final residual = 9.47100792522e-62, No Iterations 19
DILUPBiCGStab:  Solving for ILambda_97_0, Initial residual = 1, Final residual = 1.22383766998e-63, No Iterations 19
DILUPBiCGStab:  Solving for ILambda_98_0, Initial residual = 1, Final residual = 4.81870876099e-61, No Iterations 19
DILUPBiCGStab:  Solving for ILambda_99_0, Initial residual = 1, Final residual = 2.52465319227e-62, No Iterations 22
DILUPBiCGStab:  Solving for ILambda_100_0, Initial residual = 1, Final residual = 7.20891372074e-61, No Iterations 14
DILUPBiCGStab:  Solving for ILambda_101_0, Initial residual = 1, Final residual = 1.34749925834e-61, No Iterations 18
DILUPBiCGStab:  Solving for ILambda_102_0, Initial residual = 1, Final residual = 1.54537501803e-64, No Iterations 17
DILUPBiCGStab:  Solving for ILambda_103_0, Initial residual = 1, Final residual = 9.3983649253e-63, No Iterations 18
DILUPBiCGStab:  Solving for ILambda_104_0, Initial residual = 1, Final residual = 4.64420950797e-61, No Iterations 21
DILUPBiCGStab:  Solving for ILambda_105_0, Initial residual = 1, Final residual = 8.47526551927e-62, No Iterations 24
DILUPBiCGStab:  Solving for ILambda_106_0, Initial residual = 1, Final residual = 5.62809710201e-61, No Iterations 25
DILUPBiCGStab:  Solving for ILambda_107_0, Initial residual = 1, Final residual = 1.50467664959e-61, No Iterations 27
DILUPBiCGStab:  Solving for ILambda_108_0, Initial residual = 1, Final residual = 2.87863836264e-61, No Iterations 26
DILUPBiCGStab:  Solving for ILambda_109_0, Initial residual = 1, Final residual = 7.41794274427e-61, No Iterations 25
DILUPBiCGStab:  Solving for ILambda_110_0, Initial residual = 1, Final residual = 2.68840242509e-61, No Iterations 23
DILUPBiCGStab:  Solving for ILambda_111_0, Initial residual = 1, Final residual = 3.71536674931e-62, No Iterations 21
DILUPBiCGStab:  Solving for ILambda_112_0, Initial residual = 1, Final residual = 1.11809881871e-63, No Iterations 2
DILUPBiCGStab:  Solving for ILambda_113_0, Initial residual = 1, Final residual = 1.43379834609e-63, No Iterations 2
DILUPBiCGStab:  Solving for ILambda_114_0, Initial residual = 1, Final residual = 2.15559308677e-63, No Iterations 2
DILUPBiCGStab:  Solving for ILambda_115_0, Initial residual = 1, Final residual = 2.14578258898e-63, No Iterations 2
DILUPBiCGStab:  Solving for ILambda_116_0, Initial residual = 1, Final residual = 1.29299745356e-63, No Iterations 2
DILUPBiCGStab:  Solving for ILambda_117_0, Initial residual = 1, Final residual = 3.21118867801e-63, No Iterations 2
DILUPBiCGStab:  Solving for ILambda_118_0, Initial residual = 1, Final residual = 8.22641050573e-64, No Iterations 2
DILUPBiCGStab:  Solving for ILambda_119_0, Initial residual = 1, Final residual = 2.07437277598e-63, No Iterations 2
DILUPBiCGStab:  Solving for ILambda_120_0, Initial residual = 1, Final residual = 3.71579273796e-62, No Iterations 21
DILUPBiCGStab:  Solving for ILambda_121_0, Initial residual = 1, Final residual = 1.917364134e-61, No Iterations 23
DILUPBiCGStab:  Solving for ILambda_122_0, Initial residual = 1, Final residual = 1.62744917298e-61, No Iterations 25
DILUPBiCGStab:  Solving for ILambda_123_0, Initial residual = 1, Final residual = 4.49067475568e-61, No Iterations 26
DILUPBiCGStab:  Solving for ILambda_124_0, Initial residual = 1, Final residual = 7.43854582217e-61, No Iterations 26
DILUPBiCGStab:  Solving for ILambda_125_0, Initial residual = 1, Final residual = 4.72286045321e-61, No Iterations 25
DILUPBiCGStab:  Solving for ILambda_126_0, Initial residual = 1, Final residual = 4.78008454802e-62, No Iterations 24
DILUPBiCGStab:  Solving for ILambda_127_0, Initial residual = 1, Final residual = 4.60382730354e-61, No Iterations 21
Radiation solver iter: 1
DILUPBiCGStab:  Solving for ILambda_0_0, Initial residual = 5.92163302616e-17, Final residual = 1.65621710182e-64, No Iterations 2
DILUPBiCGStab:  Solving for ILambda_1_0, Initial residual = 7.50755164338e-17, Final residual = 1.56903881331e-64, No Iterations 2
DILUPBiCGStab:  Solving for ILambda_2_0, Initial residual = 7.80341574755e-17, Final residual = 1.25956801309e-64, No Iterations 2
DILUPBiCGStab:  Solving for ILambda_3_0, Initial residual = 7.87303083088e-17, Final residual = 1.40340102615e-64, No Iterations 2
DILUPBiCGStab:  Solving for ILambda_4_0, Initial residual = 8.8367646408e-17, Final residual = 1.80092601097e-64, No Iterations 2
DILUPBiCGStab:  Solving for ILambda_5_0, Initial residual = 7.92089120068e-17, Final residual = 1.23953541759e-64, No Iterations 2
DILUPBiCGStab:  Solving for ILambda_6_0, Initial residual = 7.37919883348e-17, Final residual = 1.42188891294e-64, No Iterations 2
DILUPBiCGStab:  Solving for ILambda_7_0, Initial residual = 5.61054062251e-17, Final residual = 2.93576843279e-63, No Iterations 2
DILUPBiCGStab:  Solving for ILambda_8_0, Initial residual = 1.3855577055e-16, Final residual = 5.55240657794e-62, No Iterations 16
DILUPBiCGStab:  Solving for ILambda_9_0, Initial residual = 1.68555520524e-16, Final residual = 3.82246676075e-61, No Iterations 19
DILUPBiCGStab:  Solving for ILambda_10_0, Initial residual = 1.77583726644e-16, Final residual = 2.88894317559e-63, No Iterations 21
DILUPBiCGStab:  Solving for ILambda_11_0, Initial residual = 1.79628669717e-16, Final residual = 5.18401048464e-62, No Iterations 21
DILUPBiCGStab:  Solving for ILambda_12_0, Initial residual = 1.84871555681e-16, Final residual = 3.45087502782e-61, No Iterations 21
DILUPBiCGStab:  Solving for ILambda_13_0, Initial residual = 1.76169670264e-16, Final residual = 1.93782472649e-62, No Iterations 21
DILUPBiCGStab:  Solving for ILambda_14_0, Initial residual = 1.64052294821e-16, Final residual = 7.65713945496e-61, No Iterations 19
DILUPBiCGStab:  Solving for ILambda_15_0, Initial residual = 1.55219881123e-16, Final residual = 3.5814160169e-62, No Iterations 16
DILUPBiCGStab:  Solving for ILambda_16_0, Initial residual = 1.09426209117e-16, Final residual = 1.38620214663e-62, No Iterations 7
DILUPBiCGStab:  Solving for ILambda_17_0, Initial residual = 1.25742244273e-16, Final residual = 3.44797519668e-61, No Iterations 8
DILUPBiCGStab:  Solving for ILambda_18_0, Initial residual = 1.33117092164e-16, Final residual = 4.63807227285e-62, No Iterations 8
DILUPBiCGStab:  Solving for ILambda_19_0, Initial residual = 1.34096054273e-16, Final residual = 3.45492483143e-61, No Iterations 8
DILUPBiCGStab:  Solving for ILambda_20_0, Initial residual = 1.23175188075e-16, Final residual = 3.9591352041e-61, No Iterations 8
DILUPBiCGStab:  Solving for ILambda_21_0, Initial residual = 1.27091036513e-16, Final residual = 4.06307976126e-63, No Iterations 8
DILUPBiCGStab:  Solving for ILambda_22_0, Initial residual = 1.25568206565e-16, Final residual = 1.24923632294e-62, No Iterations 9
DILUPBiCGStab:  Solving for ILambda_23_0, Initial residual = 1.08512511148e-16, Final residual = 3.16458939406e-62, No Iterations 7
DILUPBiCGStab:  Solving for ILambda_24_0, Initial residual = 1.49128561331e-16, Final residual = 5.10648238906e-62, No Iterations 16
DILUPBiCGStab:  Solving for ILambda_25_0, Initial residual = 1.72884708519e-16, Final residual = 5.4638933048e-61, No Iterations 19
DILUPBiCGStab:  Solving for ILambda_26_0, Initial residual = 1.84458216123e-16, Final residual = 2.73054629985e-61, No Iterations 20
DILUPBiCGStab:  Solving for ILambda_27_0, Initial residual = 1.910063849e-16, Final residual = 2.05367831702e-61, No Iterations 21
DILUPBiCGStab:  Solving for ILambda_28_0, Initial residual = 1.78780235889e-16, Final residual = 3.55724525056e-63, No Iterations 21
DILUPBiCGStab:  Solving for ILambda_29_0, Initial residual = 1.74690349743e-16, Final residual = 1.15447867139e-61, No Iterations 21
DILUPBiCGStab:  Solving for ILambda_30_0, Initial residual = 1.62507710159e-16, Final residual = 1.68009798264e-61, No Iterations 20
DILUPBiCGStab:  Solving for ILambda_31_0, Initial residual = 1.39817543935e-16, Final residual = 4.88116320188e-62, No Iterations 16
DILUPBiCGStab:  Solving for ILambda_32_0, Initial residual = 2.03189024483e-16, Final residual = 1.09638553843e-63, No Iterations 2
DILUPBiCGStab:  Solving for ILambda_33_0, Initial residual = 2.46089319588e-16, Final residual = 6.85637030126e-64, No Iterations 2
DILUPBiCGStab:  Solving for ILambda_34_0, Initial residual = 2.87075199901e-16, Final residual = 1.59962215188e-63, No Iterations 2
DILUPBiCGStab:  Solving for ILambda_35_0, Initial residual = 3.03086669068e-16, Final residual = 9.33513163922e-64, No Iterations 2
DILUPBiCGStab:  Solving for ILambda_36_0, Initial residual = 3.3171587209e-16, Final residual = 1.13680702193e-63, No Iterations 2
DILUPBiCGStab:  Solving for ILambda_37_0, Initial residual = 3.16748629173e-16, Final residual = 2.13974374143e-63, No Iterations 2
DILUPBiCGStab:  Solving for ILambda_38_0, Initial residual = 2.94384783652e-16, Final residual = 8.59439263141e-64, No Iterations 2
DILUPBiCGStab:  Solving for ILambda_39_0, Initial residual = 1.91354460316e-16, Final residual = 5.04831805528e-63, No Iterations 2
DILUPBiCGStab:  Solving for ILambda_40_0, Initial residual = 3.76965676257e-16, Final residual = 5.731861551e-62, No Iterations 17
DILUPBiCGStab:  Solving for ILambda_41_0, Initial residual = 4.67813360009e-16, Final residual = 1.14033156862e-61, No Iterations 21
DILUPBiCGStab:  Solving for ILambda_42_0, Initial residual = 5.37689499906e-16, Final residual = 7.69474571572e-63, No Iterations 25
DILUPBiCGStab:  Solving for ILambda_43_0, Initial residual = 5.93207528866e-16, Final residual = 3.78569343625e-61, No Iterations 24
DILUPBiCGStab:  Solving for ILambda_44_0, Initial residual = 6.00169037199e-16, Final residual = 3.4188815357e-61, No Iterations 24
DILUPBiCGStab:  Solving for ILambda_45_0, Initial residual = 5.59444213448e-16, Final residual = 1.83925613594e-62, No Iterations 23
DILUPBiCGStab:  Solving for ILambda_46_0, Initial residual = 5.01315618864e-16, Final residual = 6.14216726807e-61, No Iterations 20
DILUPBiCGStab:  Solving for ILambda_47_0, Initial residual = 4.15079934383e-16, Final residual = 4.77247537465e-64, No Iterations 18
DILUPBiCGStab:  Solving for ILambda_48_0, Initial residual = 3.47814360111e-16, Final residual = 5.31016577484e-62, No Iterations 9
DILUPBiCGStab:  Solving for ILambda_49_0, Initial residual = 3.86102655945e-16, Final residual = 1.23843677627e-63, No Iterations 9
DILUPBiCGStab:  Solving for ILambda_50_0, Initial residual = 3.69830130216e-16, Final residual = 6.04354934417e-62, No Iterations 8
DILUPBiCGStab:  Solving for ILambda_51_0, Initial residual = 4.22824612404e-16, Final residual = 2.48760777712e-63, No Iterations 9
DILUPBiCGStab:  Solving for ILambda_52_0, Initial residual = 3.86276693653e-16, Final residual = 5.60875408283e-62, No Iterations 10
DILUPBiCGStab:  Solving for ILambda_53_0, Initial residual = 3.58517679174e-16, Final residual = 8.92227888862e-63, No Iterations 9
DILUPBiCGStab:  Solving for ILambda_54_0, Initial residual = 3.52426359382e-16, Final residual = 3.93749170797e-63, No Iterations 9
DILUPBiCGStab:  Solving for ILambda_55_0, Initial residual = 3.05262140423e-16, Final residual = 4.00138980355e-61, No Iterations 8
DILUPBiCGStab:  Solving for ILambda_56_0, Initial residual = 4.33266874904e-16, Final residual = 2.16585935103e-62, No Iterations 17
DILUPBiCGStab:  Solving for ILambda_57_0, Initial residual = 4.81997433239e-16, Final residual = 2.79832915164e-62, No Iterations 21
DILUPBiCGStab:  Solving for ILambda_58_0, Initial residual = 5.63795156157e-16, Final residual = 2.86395330511e-61, No Iterations 22
DILUPBiCGStab:  Solving for ILambda_59_0, Initial residual = 5.85810926261e-16, Final residual = 9.88183822185e-61, No Iterations 22
DILUPBiCGStab:  Solving for ILambda_60_0, Initial residual = 5.66231684074e-16, Final residual = 8.50941395818e-61, No Iterations 24
DILUPBiCGStab:  Solving for ILambda_61_0, Initial residual = 5.3464384001e-16, Final residual = 1.80033850804e-61, No Iterations 23
DILUPBiCGStab:  Solving for ILambda_62_0, Initial residual = 4.64854718967e-16, Final residual = 3.6396622776e-61, No Iterations 21
DILUPBiCGStab:  Solving for ILambda_63_0, Initial residual = 3.80098355007e-16, Final residual = 8.93887892451e-64, No Iterations 18
DILUPBiCGStab:  Solving for ILambda_64_0, Initial residual = 2.99170820631e-16, Final residual = 5.76629241604e-63, No Iterations 10
DILUPBiCGStab:  Solving for ILambda_65_0, Initial residual = 3.27016853965e-16, Final residual = 4.78897375134e-62, No Iterations 9
DILUPBiCGStab:  Solving for ILambda_66_0, Initial residual = 3.27800023652e-16, Final residual = 4.95124446321e-61, No Iterations 10
DILUPBiCGStab:  Solving for ILambda_67_0, Initial residual = 3.53470585632e-16, Final residual = 6.756295328e-61, No Iterations 9
DILUPBiCGStab:  Solving for ILambda_68_0, Initial residual = 3.53731642194e-16, Final residual = 4.54986976576e-62, No Iterations 11
DILUPBiCGStab:  Solving for ILambda_69_0, Initial residual = 3.73920016361e-16, Final residual = 4.21696250132e-62, No Iterations 9
DILUPBiCGStab:  Solving for ILambda_70_0, Initial residual = 3.5468884959e-16, Final residual = 4.88354020503e-62, No Iterations 10
DILUPBiCGStab:  Solving for ILambda_71_0, Initial residual = 3.19968326777e-16, Final residual = 5.7002363118e-61, No Iterations 10
DILUPBiCGStab:  Solving for ILambda_72_0, Initial residual = 4.01940087404e-16, Final residual = 3.63144997373e-61, No Iterations 18
DILUPBiCGStab:  Solving for ILambda_73_0, Initial residual = 4.70249887926e-16, Final residual = 2.47692258106e-61, No Iterations 20
DILUPBiCGStab:  Solving for ILambda_74_0, Initial residual = 5.37254405635e-16, Final residual = 4.84469099162e-61, No Iterations 24
DILUPBiCGStab:  Solving for ILambda_75_0, Initial residual = 5.7658692772e-16, Final residual = 1.88716767766e-62, No Iterations 24
DILUPBiCGStab:  Solving for ILambda_76_0, Initial residual = 5.57703836365e-16, Final residual = 1.86797161545e-61, No Iterations 24
DILUPBiCGStab:  Solving for ILambda_77_0, Initial residual = 5.20981879906e-16, Final residual = 8.43347250149e-61, No Iterations 23
DILUPBiCGStab:  Solving for ILambda_78_0, Initial residual = 4.94180072822e-16, Final residual = 3.07889031375e-62, No Iterations 22
DILUPBiCGStab:  Solving for ILambda_79_0, Initial residual = 3.96631937299e-16, Final residual = 1.27729750058e-63, No Iterations 18
DILUPBiCGStab:  Solving for ILambda_80_0, Initial residual = 1.94052044795e-16, Final residual = 8.27583965755e-64, No Iterations 2
DILUPBiCGStab:  Solving for ILambda_81_0, Initial residual = 2.58707053443e-16, Final residual = 8.6750133028e-64, No Iterations 2
DILUPBiCGStab:  Solving for ILambda_82_0, Initial residual = 2.82985313756e-16, Final residual = 2.56718891936e-63, No Iterations 2
DILUPBiCGStab:  Solving for ILambda_83_0, Initial residual = 2.96038141881e-16, Final residual = 5.552292447e-62, No Iterations 2
DILUPBiCGStab:  Solving for ILambda_84_0, Initial residual = 2.66712788026e-16, Final residual = 7.74261922081e-64, No Iterations 2
DILUPBiCGStab:  Solving for ILambda_85_0, Initial residual = 2.67757014276e-16, Final residual = 8.4539985025e-64, No Iterations 2
DILUPBiCGStab:  Solving for ILambda_86_0, Initial residual = 2.55574374692e-16, Final residual = 6.84532807001e-64, No Iterations 2
DILUPBiCGStab:  Solving for ILambda_87_0, Initial residual = 1.83261706879e-16, Final residual = 1.21193178239e-63, No Iterations 2
DILUPBiCGStab:  Solving for ILambda_88_0, Initial residual = 4.14122726987e-16, Final residual = 3.1179899537e-61, No Iterations 18
DILUPBiCGStab:  Solving for ILambda_89_0, Initial residual = 4.84607998864e-16, Final residual = 2.82090318042e-61, No Iterations 20
DILUPBiCGStab:  Solving for ILambda_90_0, Initial residual = 5.46826479594e-16, Final residual = 1.08524495149e-61, No Iterations 23
DILUPBiCGStab:  Solving for ILambda_91_0, Initial residual = 5.35775085115e-16, Final residual = 2.38112132973e-61, No Iterations 23
DILUPBiCGStab:  Solving for ILambda_92_0, Initial residual = 5.61619684803e-16, Final residual = 5.27109642702e-63, No Iterations 24
DILUPBiCGStab:  Solving for ILambda_93_0, Initial residual = 5.46391385323e-16, Final residual = 2.84384524108e-63, No Iterations 24
DILUPBiCGStab:  Solving for ILambda_94_0, Initial residual = 4.75819094593e-16, Final residual = 1.38775468862e-61, No Iterations 22
DILUPBiCGStab:  Solving for ILambda_95_0, Initial residual = 4.028972948e-16, Final residual = 9.23038389213e-62, No Iterations 18
DILUPBiCGStab:  Solving for ILambda_96_0, Initial residual = 1.0975252982e-16, Final residual = 1.98423939027e-63, No Iterations 9
DILUPBiCGStab:  Solving for ILambda_97_0, Initial residual = 1.19020037789e-16, Final residual = 3.12262931881e-64, No Iterations 8
DILUPBiCGStab:  Solving for ILambda_98_0, Initial residual = 1.13798906539e-16, Final residual = 3.20581102267e-61, No Iterations 9
DILUPBiCGStab:  Solving for ILambda_99_0, Initial residual = 1.2049935831e-16, Final residual = 3.28027190804e-61, No Iterations 10
DILUPBiCGStab:  Solving for ILambda_100_0, Initial residual = 1.22827112659e-16, Final residual = 9.35767663972e-62, No Iterations 9
DILUPBiCGStab:  Solving for ILambda_101_0, Initial residual = 1.23719055914e-16, Final residual = 5.36593201613e-63, No Iterations 8
DILUPBiCGStab:  Solving for ILambda_102_0, Initial residual = 1.28331055185e-16, Final residual = 7.35146763106e-61, No Iterations 8
DILUPBiCGStab:  Solving for ILambda_103_0, Initial residual = 1.18628452945e-16, Final residual = 5.07829297098e-63, No Iterations 8
DILUPBiCGStab:  Solving for ILambda_104_0, Initial residual = 1.44647090341e-16, Final residual = 8.05162004e-61, No Iterations 16
DILUPBiCGStab:  Solving for ILambda_105_0, Initial residual = 1.68533765811e-16, Final residual = 7.51328279674e-61, No Iterations 19
DILUPBiCGStab:  Solving for ILambda_106_0, Initial residual = 1.75081934587e-16, Final residual = 2.46856637978e-62, No Iterations 21
DILUPBiCGStab:  Solving for ILambda_107_0, Initial residual = 1.76278443832e-16, Final residual = 5.89446192859e-65, No Iterations 22
DILUPBiCGStab:  Solving for ILambda_108_0, Initial residual = 1.76713538102e-16, Final residual = 1.54988938832e-62, No Iterations 21
DILUPBiCGStab:  Solving for ILambda_109_0, Initial residual = 1.751036893e-16, Final residual = 3.42110961638e-61, No Iterations 20
DILUPBiCGStab:  Solving for ILambda_110_0, Initial residual = 1.74320519613e-16, Final residual = 4.64034418781e-62, No Iterations 19
DILUPBiCGStab:  Solving for ILambda_111_0, Initial residual = 1.54284428441e-16, Final residual = 1.7262178714e-61, No Iterations 16
DILUPBiCGStab:  Solving for ILambda_112_0, Initial residual = 4.99053128656e-17, Final residual = 2.26430507444e-64, No Iterations 2
DILUPBiCGStab:  Solving for ILambda_113_0, Initial residual = 8.16889493506e-17, Final residual = 3.83680051095e-64, No Iterations 2
DILUPBiCGStab:  Solving for ILambda_114_0, Initial residual = 7.96222515641e-17, Final residual = 4.7935109396e-64, No Iterations 2
DILUPBiCGStab:  Solving for ILambda_115_0, Initial residual = 7.60979879702e-17, Final residual = 1.60336198395e-64, No Iterations 2
DILUPBiCGStab:  Solving for ILambda_116_0, Initial residual = 6.87231400795e-17, Final residual = 2.27717915928e-64, No Iterations 2
DILUPBiCGStab:  Solving for ILambda_117_0, Initial residual = 6.6177838595e-17, Final residual = 8.88400664143e-65, No Iterations 2
DILUPBiCGStab:  Solving for ILambda_118_0, Initial residual = 7.07463284389e-17, Final residual = 2.38927893219e-62, No Iterations 2
DILUPBiCGStab:  Solving for ILambda_119_0, Initial residual = 5.69538400532e-17, Final residual = 1.14314836221e-64, No Iterations 2
DILUPBiCGStab:  Solving for ILambda_120_0, Initial residual = 1.44233750784e-16, Final residual = 7.66470449503e-61, No Iterations 16
DILUPBiCGStab:  Solving for ILambda_121_0, Initial residual = 1.71796972842e-16, Final residual = 1.52527301803e-62, No Iterations 20
DILUPBiCGStab:  Solving for ILambda_122_0, Initial residual = 1.76104406123e-16, Final residual = 5.67036629977e-61, No Iterations 21
DILUPBiCGStab:  Solving for ILambda_123_0, Initial residual = 1.84828046254e-16, Final residual = 4.56892099553e-61, No Iterations 21
DILUPBiCGStab:  Solving for ILambda_124_0, Initial residual = 1.79998499847e-16, Final residual = 6.76490067175e-62, No Iterations 21
DILUPBiCGStab:  Solving for ILambda_125_0, Initial residual = 1.73276293363e-16, Final residual = 1.72402108146e-63, No Iterations 21
DILUPBiCGStab:  Solving for ILambda_126_0, Initial residual = 1.66271275602e-16, Final residual = 2.07638183585e-61, No Iterations 19
DILUPBiCGStab:  Solving for ILambda_127_0, Initial residual = 1.55676730107e-16, Final residual = 1.14229056395e-61, No Iterations 16
min/max(T) = 1000, 1000
PIMPLE: iteration 2
Radiation solver iter: 0
DILUPBiCGStab:  Solving for ILambda_0_0, Initial residual = 5.16456899489e-17, Final residual = 1.67039468789e-64, No Iterations 2
DILUPBiCGStab:  Solving for ILambda_1_0, Initial residual = 7.2638988517e-17, Final residual = 3.03506239603e-64, No Iterations 2
DILUPBiCGStab:  Solving for ILambda_2_0, Initial residual = 7.2638988517e-17, Final residual = 1.19884738419e-64, No Iterations 2
DILUPBiCGStab:  Solving for ILambda_3_0, Initial residual = 7.71422142203e-17, Final residual = 1.52268947996e-64, No Iterations 2
DILUPBiCGStab:  Solving for ILambda_4_0, Initial residual = 8.3190024585e-17, Final residual = 1.68279951607e-64, No Iterations 2
DILUPBiCGStab:  Solving for ILambda_5_0, Initial residual = 7.47491957306e-17, Final residual = 2.50492566063e-64, No Iterations 2
DILUPBiCGStab:  Solving for ILambda_6_0, Initial residual = 6.92017437774e-17, Final residual = 4.40530721041e-64, No Iterations 2
DILUPBiCGStab:  Solving for ILambda_7_0, Initial residual = 4.97747845843e-17, Final residual = 8.35631749903e-65, No Iterations 2
DILUPBiCGStab:  Solving for ILambda_8_0, Initial residual = 5.77587644543e-17, Final residual = 3.49313703465e-62, No Iterations 16
DILUPBiCGStab:  Solving for ILambda_9_0, Initial residual = 7.9100138439e-17, Final residual = 2.97661203105e-61, No Iterations 20
DILUPBiCGStab:  Solving for ILambda_10_0, Initial residual = 8.84546652621e-17, Final residual = 9.49701473219e-62, No Iterations 21
DILUPBiCGStab:  Solving for ILambda_11_0, Initial residual = 8.72364013038e-17, Final residual = 3.74569794482e-62, No Iterations 21
DILUPBiCGStab:  Solving for ILambda_12_0, Initial residual = 9.378457008e-17, Final residual = 2.54124774057e-61, No Iterations 21
DILUPBiCGStab:  Solving for ILambda_13_0, Initial residual = 9.04125894809e-17, Final residual = 1.20228161882e-61, No Iterations 20
DILUPBiCGStab:  Solving for ILambda_14_0, Initial residual = 8.18412323453e-17, Final residual = 7.48837205769e-61, No Iterations 19
DILUPBiCGStab:  Solving for ILambda_15_0, Initial residual = 5.64317269282e-17, Final residual = 8.82277203202e-62, No Iterations 16
DILUPBiCGStab:  Solving for ILambda_16_0, Initial residual = 5.64317269282e-17, Final residual = 3.98882719311e-63, No Iterations 7
DILUPBiCGStab:  Solving for ILambda_17_0, Initial residual = 7.78818744807e-17, Final residual = 1.83508599302e-63, No Iterations 8
DILUPBiCGStab:  Solving for ILambda_18_0, Initial residual = 8.475636396e-17, Final residual = 7.0253610823e-61, No Iterations 8
DILUPBiCGStab:  Solving for ILambda_19_0, Initial residual = 8.18629870589e-17, Final residual = 2.21380430709e-64, No Iterations 7
DILUPBiCGStab:  Solving for ILambda_20_0, Initial residual = 8.16889493506e-17, Final residual = 2.46858444015e-61, No Iterations 8
DILUPBiCGStab:  Solving for ILambda_21_0, Initial residual = 8.30377415902e-17, Final residual = 1.76440230587e-62, No Iterations 8
DILUPBiCGStab:  Solving for ILambda_22_0, Initial residual = 7.9056629012e-17, Final residual = 3.52506562651e-61, No Iterations 7
DILUPBiCGStab:  Solving for ILambda_23_0, Initial residual = 5.69103306261e-17, Final residual = 3.0957836931e-63, No Iterations 8
DILUPBiCGStab:  Solving for ILambda_24_0, Initial residual = 6.10437261991e-17, Final residual = 2.6522984089e-61, No Iterations 16
DILUPBiCGStab:  Solving for ILambda_25_0, Initial residual = 8.46693451058e-17, Final residual = 8.87641071563e-62, No Iterations 19
DILUPBiCGStab:  Solving for ILambda_26_0, Initial residual = 9.22399854185e-17, Final residual = 3.74249952862e-64, No Iterations 21
DILUPBiCGStab:  Solving for ILambda_27_0, Initial residual = 9.36757965122e-17, Final residual = 2.79803522294e-64, No Iterations 22
DILUPBiCGStab:  Solving for ILambda_28_0, Initial residual = 9.19571741424e-17, Final residual = 3.89410335021e-62, No Iterations 20
DILUPBiCGStab:  Solving for ILambda_29_0, Initial residual = 8.72146465902e-17, Final residual = 8.92430119779e-62, No Iterations 21
DILUPBiCGStab:  Solving for ILambda_30_0, Initial residual = 7.86215347411e-17, Final residual = 1.77489681396e-61, No Iterations 19
DILUPBiCGStab:  Solving for ILambda_31_0, Initial residual = 6.07609149231e-17, Final residual = 1.48292668939e-61, No Iterations 16
DILUPBiCGStab:  Solving for ILambda_32_0, Initial residual = 1.79693933858e-16, Final residual = 9.57201592277e-64, No Iterations 2
DILUPBiCGStab:  Solving for ILambda_33_0, Initial residual = 2.37387434171e-16, Final residual = 6.59952840041e-64, No Iterations 2
DILUPBiCGStab:  Solving for ILambda_34_0, Initial residual = 2.69410372505e-16, Final residual = 8.2501656999e-64, No Iterations 2
DILUPBiCGStab:  Solving for ILambda_35_0, Initial residual = 2.84029540006e-16, Final residual = 8.45710803106e-64, No Iterations 2
DILUPBiCGStab:  Solving for ILambda_36_0, Initial residual = 3.26755797402e-16, Final residual = 8.77865959169e-64, No Iterations 2
DILUPBiCGStab:  Solving for ILambda_37_0, Initial residual = 2.92122293443e-16, Final residual = 7.32477815064e-64, No Iterations 2
DILUPBiCGStab:  Solving for ILambda_38_0, Initial residual = 2.82811276047e-16, Final residual = 7.58658257443e-64, No Iterations 2
DILUPBiCGStab:  Solving for ILambda_39_0, Initial residual = 1.79867971566e-16, Final residual = 6.72410825323e-64, No Iterations 2
DILUPBiCGStab:  Solving for ILambda_40_0, Initial residual = 1.9352993167e-16, Final residual = 4.91428924512e-61, No Iterations 17
DILUPBiCGStab:  Solving for ILambda_41_0, Initial residual = 2.56009468963e-16, Final residual = 2.85931383509e-63, No Iterations 21
DILUPBiCGStab:  Solving for ILambda_42_0, Initial residual = 2.83246370318e-16, Final residual = 3.46251677285e-61, No Iterations 22
DILUPBiCGStab:  Solving for ILambda_43_0, Initial residual = 3.29453381881e-16, Final residual = 1.68562304311e-61, No Iterations 22
DILUPBiCGStab:  Solving for ILambda_44_0, Initial residual = 3.39547568965e-16, Final residual = 1.64846845016e-61, No Iterations 23
DILUPBiCGStab:  Solving for ILambda_45_0, Initial residual = 3.05349159277e-16, Final residual = 1.01080692542e-61, No Iterations 23
DILUPBiCGStab:  Solving for ILambda_46_0, Initial residual = 2.74544484901e-16, Final residual = 9.15688337318e-61, No Iterations 20
DILUPBiCGStab:  Solving for ILambda_47_0, Initial residual = 2.10237551671e-16, Final residual = 2.44207332424e-64, No Iterations 18
DILUPBiCGStab:  Solving for ILambda_48_0, Initial residual = 2.03363062191e-16, Final residual = 3.9412334049e-62, No Iterations 11
DILUPBiCGStab:  Solving for ILambda_49_0, Initial residual = 2.6993248563e-16, Final residual = 5.75808020989e-61, No Iterations 8
DILUPBiCGStab:  Solving for ILambda_50_0, Initial residual = 2.95429009902e-16, Final residual = 5.62710884579e-61, No Iterations 8
DILUPBiCGStab:  Solving for ILambda_51_0, Initial residual = 3.27887042506e-16, Final residual = 1.14592708569e-62, No Iterations 9
DILUPBiCGStab:  Solving for ILambda_52_0, Initial residual = 3.05610215839e-16, Final residual = 4.03496191579e-65, No Iterations 8
DILUPBiCGStab:  Solving for ILambda_53_0, Initial residual = 2.74544484901e-16, Final residual = 6.46210811665e-61, No Iterations 8
DILUPBiCGStab:  Solving for ILambda_54_0, Initial residual = 2.48525847505e-16, Final residual = 5.4632690077e-62, No Iterations 8
DILUPBiCGStab:  Solving for ILambda_55_0, Initial residual = 1.8935302667e-16, Final residual = 1.7268784068e-62, No Iterations 9
DILUPBiCGStab:  Solving for ILambda_56_0, Initial residual = 2.13544268129e-16, Final residual = 8.38334835329e-61, No Iterations 17
DILUPBiCGStab:  Solving for ILambda_57_0, Initial residual = 2.75588711151e-16, Final residual = 5.55448484817e-61, No Iterations 20
DILUPBiCGStab:  Solving for ILambda_58_0, Initial residual = 3.06393385527e-16, Final residual = 2.63829857062e-61, No Iterations 22
DILUPBiCGStab:  Solving for ILambda_59_0, Initial residual = 3.28235117923e-16, Final residual = 8.2259362129e-62, No Iterations 23
DILUPBiCGStab:  Solving for ILambda_60_0, Initial residual = 3.09787120839e-16, Final residual = 1.9150880379e-61, No Iterations 24
DILUPBiCGStab:  Solving for ILambda_61_0, Initial residual = 2.94123727089e-16, Final residual = 4.66567325478e-62, No Iterations 22
DILUPBiCGStab:  Solving for ILambda_62_0, Initial residual = 2.71672862714e-16, Final residual = 9.41529911101e-62, No Iterations 21
DILUPBiCGStab:  Solving for ILambda_63_0, Initial residual = 1.97010685837e-16, Final residual = 5.74398258554e-61, No Iterations 18
DILUPBiCGStab:  Solving for ILambda_64_0, Initial residual = 1.8726457417e-16, Final residual = 1.87257703035e-63, No Iterations 9
DILUPBiCGStab:  Solving for ILambda_65_0, Initial residual = 2.42869621984e-16, Final residual = 4.18330639684e-62, No Iterations 9
DILUPBiCGStab:  Solving for ILambda_66_0, Initial residual = 2.81244936672e-16, Final residual = 2.79271584948e-63, No Iterations 10
DILUPBiCGStab:  Solving for ILambda_67_0, Initial residual = 2.78199276776e-16, Final residual = 7.20403901501e-61, No Iterations 8
DILUPBiCGStab:  Solving for ILambda_68_0, Initial residual = 2.90991048339e-16, Final residual = 3.98364571086e-61, No Iterations 8
DILUPBiCGStab:  Solving for ILambda_69_0, Initial residual = 2.86030973651e-16, Final residual = 8.33452428471e-61, No Iterations 9
DILUPBiCGStab:  Solving for ILambda_70_0, Initial residual = 2.72804107818e-16, Final residual = 6.8414961758e-62, No Iterations 9
DILUPBiCGStab:  Solving for ILambda_71_0, Initial residual = 1.82652574899e-16, Final residual = 5.63739463893e-63, No Iterations 7
DILUPBiCGStab:  Solving for ILambda_72_0, Initial residual = 1.89004951254e-16, Final residual = 8.56243874696e-64, No Iterations 18
DILUPBiCGStab:  Solving for ILambda_73_0, Initial residual = 2.65668561776e-16, Final residual = 1.78423334752e-62, No Iterations 21
DILUPBiCGStab:  Solving for ILambda_74_0, Initial residual = 2.96038141881e-16, Final residual = 2.38924512034e-61, No Iterations 23
DILUPBiCGStab:  Solving for ILambda_75_0, Initial residual = 3.0291263136e-16, Final residual = 9.88328651286e-61, No Iterations 22
DILUPBiCGStab:  Solving for ILambda_76_0, Initial residual = 3.06219347818e-16, Final residual = 4.19255608027e-61, No Iterations 23
DILUPBiCGStab:  Solving for ILambda_77_0, Initial residual = 3.02564555943e-16, Final residual = 4.23591581891e-61, No Iterations 23
DILUPBiCGStab:  Solving for ILambda_78_0, Initial residual = 2.75849767714e-16, Final residual = 5.78383983814e-63, No Iterations 21
DILUPBiCGStab:  Solving for ILambda_79_0, Initial residual = 1.94400120212e-16, Final residual = 2.47102777122e-61, No Iterations 17
DILUPBiCGStab:  Solving for ILambda_80_0, Initial residual = 1.74037708337e-16, Final residual = 7.45361252446e-64, No Iterations 2
DILUPBiCGStab:  Solving for ILambda_81_0, Initial residual = 2.52702752505e-16, Final residual = 7.12581704204e-64, No Iterations 2
DILUPBiCGStab:  Solving for ILambda_82_0, Initial residual = 2.77677163651e-16, Final residual = 6.20137839797e-64, No Iterations 2
DILUPBiCGStab:  Solving for ILambda_83_0, Initial residual = 2.91513161464e-16, Final residual = 4.6791693172e-63, No Iterations 2
DILUPBiCGStab:  Solving for ILambda_84_0, Initial residual = 2.5531331813e-16, Final residual = 6.10068106453e-63, No Iterations 2
DILUPBiCGStab:  Solving for ILambda_85_0, Initial residual = 2.68105089693e-16, Final residual = 8.3781424879e-64, No Iterations 2
DILUPBiCGStab:  Solving for ILambda_86_0, Initial residual = 2.369523399e-16, Final residual = 6.05466146137e-64, No Iterations 2
DILUPBiCGStab:  Solving for ILambda_87_0, Initial residual = 1.64552653232e-16, Final residual = 5.9323762892e-64, No Iterations 2
DILUPBiCGStab:  Solving for ILambda_88_0, Initial residual = 1.83348725733e-16, Final residual = 3.37847687982e-61, No Iterations 18
DILUPBiCGStab:  Solving for ILambda_89_0, Initial residual = 2.63232033859e-16, Final residual = 8.54166038524e-62, No Iterations 21
DILUPBiCGStab:  Solving for ILambda_90_0, Initial residual = 3.0186840511e-16, Final residual = 2.296940485e-62, No Iterations 23
DILUPBiCGStab:  Solving for ILambda_91_0, Initial residual = 2.87423275318e-16, Final residual = 2.69948873349e-61, No Iterations 23
DILUPBiCGStab:  Solving for ILambda_92_0, Initial residual = 2.85943954797e-16, Final residual = 1.71493585366e-61, No Iterations 24
DILUPBiCGStab:  Solving for ILambda_93_0, Initial residual = 2.81505993235e-16, Final residual = 3.25003876987e-61, No Iterations 23
DILUPBiCGStab:  Solving for ILambda_94_0, Initial residual = 2.74196409485e-16, Final residual = 2.0798442533e-62, No Iterations 22
DILUPBiCGStab:  Solving for ILambda_95_0, Initial residual = 1.87090536462e-16, Final residual = 1.63599906728e-61, No Iterations 18
DILUPBiCGStab:  Solving for ILambda_96_0, Initial residual = 5.2211312501e-17, Final residual = 8.0889474798e-61, No Iterations 7
DILUPBiCGStab:  Solving for ILambda_97_0, Initial residual = 6.4850801069e-17, Final residual = 8.55445524481e-62, No Iterations 9
DILUPBiCGStab:  Solving for ILambda_98_0, Initial residual = 6.45679897929e-17, Final residual = 2.97061977485e-62, No Iterations 8
DILUPBiCGStab:  Solving for ILambda_99_0, Initial residual = 6.96585927618e-17, Final residual = 8.10110878732e-61, No Iterations 8
DILUPBiCGStab:  Solving for ILambda_100_0, Initial residual = 8.31682698714e-17, Final residual = 1.24177738442e-62, No Iterations 9
DILUPBiCGStab:  Solving for ILambda_101_0, Initial residual = 8.02966476839e-17, Final residual = 1.16443882892e-62, No Iterations 9
DILUPBiCGStab:  Solving for ILambda_102_0, Initial residual = 8.31030057308e-17, Final residual = 4.11551743284e-61, No Iterations 8
DILUPBiCGStab:  Solving for ILambda_103_0, Initial residual = 5.44955574229e-17, Final residual = 2.82985409486e-62, No Iterations 9
DILUPBiCGStab:  Solving for ILambda_104_0, Initial residual = 5.31032557562e-17, Final residual = 4.91700540482e-62, No Iterations 16
DILUPBiCGStab:  Solving for ILambda_105_0, Initial residual = 6.87013853659e-17, Final residual = 6.38222326747e-61, No Iterations 19
DILUPBiCGStab:  Solving for ILambda_106_0, Initial residual = 6.82662910951e-17, Final residual = 3.57983177905e-65, No Iterations 21
DILUPBiCGStab:  Solving for ILambda_107_0, Initial residual = 7.10508944285e-17, Final residual = 1.6826829754e-62, No Iterations 21
DILUPBiCGStab:  Solving for ILambda_108_0, Initial residual = 7.86650441682e-17, Final residual = 4.40806083255e-61, No Iterations 21
DILUPBiCGStab:  Solving for ILambda_109_0, Initial residual = 8.42124961214e-17, Final residual = 9.06890003605e-61, No Iterations 20
DILUPBiCGStab:  Solving for ILambda_110_0, Initial residual = 7.9056629012e-17, Final residual = 3.49649161212e-61, No Iterations 19
DILUPBiCGStab:  Solving for ILambda_111_0, Initial residual = 5.36688783083e-17, Final residual = 4.26399637999e-62, No Iterations 16
DILUPBiCGStab:  Solving for ILambda_112_0, Initial residual = 4.68596529697e-17, Final residual = 3.04237129338e-64, No Iterations 2
DILUPBiCGStab:  Solving for ILambda_113_0, Initial residual = 6.96368380482e-17, Final residual = 1.50243361009e-64, No Iterations 2
DILUPBiCGStab:  Solving for ILambda_114_0, Initial residual = 7.48579692983e-17, Final residual = 7.03077766449e-64, No Iterations 2
DILUPBiCGStab:  Solving for ILambda_115_0, Initial residual = 7.51407805744e-17, Final residual = 1.47543915478e-64, No Iterations 2
DILUPBiCGStab:  Solving for ILambda_116_0, Initial residual = 6.30886692721e-17, Final residual = 6.31946589948e-64, No Iterations 2
DILUPBiCGStab:  Solving for ILambda_117_0, Initial residual = 6.26535750012e-17, Final residual = 3.41106715792e-64, No Iterations 2
DILUPBiCGStab:  Solving for ILambda_118_0, Initial residual = 6.6939253569e-17, Final residual = 1.09150703244e-64, No Iterations 2
DILUPBiCGStab:  Solving for ILambda_119_0, Initial residual = 4.90351243239e-17, Final residual = 9.82286398232e-65, No Iterations 2
DILUPBiCGStab:  Solving for ILambda_120_0, Initial residual = 5.36253688813e-17, Final residual = 4.9758821598e-62, No Iterations 16
DILUPBiCGStab:  Solving for ILambda_121_0, Initial residual = 7.71422142203e-17, Final residual = 1.25426058539e-64, No Iterations 20
DILUPBiCGStab:  Solving for ILambda_122_0, Initial residual = 8.39731942725e-17, Final residual = 1.5451201418e-62, No Iterations 21
DILUPBiCGStab:  Solving for ILambda_123_0, Initial residual = 8.82588728403e-17, Final residual = 4.19991810682e-61, No Iterations 21
DILUPBiCGStab:  Solving for ILambda_124_0, Initial residual = 7.41400637514e-17, Final residual = 4.00417158492e-61, No Iterations 21
DILUPBiCGStab:  Solving for ILambda_125_0, Initial residual = 6.97021021889e-17, Final residual = 7.32041943234e-61, No Iterations 20
DILUPBiCGStab:  Solving for ILambda_126_0, Initial residual = 7.10291397149e-17, Final residual = 4.53003819257e-61, No Iterations 19
DILUPBiCGStab:  Solving for ILambda_127_0, Initial residual = 5.44085385688e-17, Final residual = 3.32304162264e-65, No Iterations 17
min/max(T) = 1000, 1000
PIMPLE: iteration 3
Radiation solver iter: 0
DILUPBiCGStab:  Solving for ILambda_0_0, Initial residual = 5.10583126833e-17, Final residual = 8.64844268922e-65, No Iterations 2
DILUPBiCGStab:  Solving for ILambda_1_0, Initial residual = 6.91582343503e-17, Final residual = 1.36736588029e-64, No Iterations 2
DILUPBiCGStab:  Solving for ILambda_2_0, Initial residual = 7.61850068244e-17, Final residual = 1.21882724855e-64, No Iterations 2
DILUPBiCGStab:  Solving for ILambda_3_0, Initial residual = 7.88825913036e-17, Final residual = 1.51544989253e-64, No Iterations 2
DILUPBiCGStab:  Solving for ILambda_4_0, Initial residual = 8.25156284652e-17, Final residual = 1.3669405536e-64, No Iterations 2
DILUPBiCGStab:  Solving for ILambda_5_0, Initial residual = 7.4923233439e-17, Final residual = 2.185983758e-64, No Iterations 2
DILUPBiCGStab:  Solving for ILambda_6_0, Initial residual = 6.98978946107e-17, Final residual = 2.99331619009e-63, No Iterations 2
DILUPBiCGStab:  Solving for ILambda_7_0, Initial residual = 4.91874073187e-17, Final residual = 8.34550613956e-65, No Iterations 2
DILUPBiCGStab:  Solving for ILambda_8_0, Initial residual = 5.18849917979e-17, Final residual = 9.88930102118e-61, No Iterations 16
DILUPBiCGStab:  Solving for ILambda_9_0, Initial residual = 6.98543851837e-17, Final residual = 1.27466097671e-61, No Iterations 19
DILUPBiCGStab:  Solving for ILambda_10_0, Initial residual = 8.36033641423e-17, Final residual = 7.20036040223e-62, No Iterations 20
DILUPBiCGStab:  Solving for ILambda_11_0, Initial residual = 7.97745345589e-17, Final residual = 1.42453376983e-63, No Iterations 21
DILUPBiCGStab:  Solving for ILambda_12_0, Initial residual = 8.63879674756e-17, Final residual = 1.73957204145e-63, No Iterations 21
DILUPBiCGStab:  Solving for ILambda_13_0, Initial residual = 7.73597613557e-17, Final residual = 1.60615699264e-61, No Iterations 20
DILUPBiCGStab:  Solving for ILambda_14_0, Initial residual = 7.14859886993e-17, Final residual = 6.02172382187e-61, No Iterations 19
DILUPBiCGStab:  Solving for ILambda_15_0, Initial residual = 5.09495391156e-17, Final residual = 3.10871541388e-62, No Iterations 16
DILUPBiCGStab:  Solving for ILambda_16_0, Initial residual = 4.95572374489e-17, Final residual = 6.2786995497e-62, No Iterations 8
DILUPBiCGStab:  Solving for ILambda_17_0, Initial residual = 7.48797240119e-17, Final residual = 2.63398247072e-63, No Iterations 8
DILUPBiCGStab:  Solving for ILambda_18_0, Initial residual = 7.55541201317e-17, Final residual = 2.01839715765e-62, No Iterations 9
DILUPBiCGStab:  Solving for ILambda_19_0, Initial residual = 7.56628936994e-17, Final residual = 1.8241814765e-63, No Iterations 8
DILUPBiCGStab:  Solving for ILambda_20_0, Initial residual = 8.11233267985e-17, Final residual = 4.26434804667e-61, No Iterations 8
DILUPBiCGStab:  Solving for ILambda_21_0, Initial residual = 7.91436478661e-17, Final residual = 3.5121456226e-63, No Iterations 9
DILUPBiCGStab:  Solving for ILambda_22_0, Initial residual = 6.75918949753e-17, Final residual = 4.18607880692e-61, No Iterations 8
DILUPBiCGStab:  Solving for ILambda_23_0, Initial residual = 5.10365579697e-17, Final residual = 3.8764744785e-64, No Iterations 7
DILUPBiCGStab:  Solving for ILambda_24_0, Initial residual = 5.12758598187e-17, Final residual = 1.55341257044e-61, No Iterations 16
DILUPBiCGStab:  Solving for ILambda_25_0, Initial residual = 7.25302149493e-17, Final residual = 7.60114896253e-68, No Iterations 20
DILUPBiCGStab:  Solving for ILambda_26_0, Initial residual = 8.03401571109e-17, Final residual = 8.92586363534e-62, No Iterations 20
DILUPBiCGStab:  Solving for ILambda_27_0, Initial residual = 8.25808926058e-17, Final residual = 2.28450299924e-61, No Iterations 21
DILUPBiCGStab:  Solving for ILambda_28_0, Initial residual = 8.18412323454e-17, Final residual = 2.43867479347e-61, No Iterations 20
DILUPBiCGStab:  Solving for ILambda_29_0, Initial residual = 7.83387234651e-17, Final residual = 1.21647472511e-61, No Iterations 21
DILUPBiCGStab:  Solving for ILambda_30_0, Initial residual = 6.85708570847e-17, Final residual = 4.77345741364e-61, No Iterations 19
DILUPBiCGStab:  Solving for ILambda_31_0, Initial residual = 5.25811426312e-17, Final residual = 2.79053789289e-63, No Iterations 16
DILUPBiCGStab:  Solving for ILambda_32_0, Initial residual = 1.79780952712e-16, Final residual = 9.31692319568e-64, No Iterations 2
DILUPBiCGStab:  Solving for ILambda_33_0, Initial residual = 2.35298981671e-16, Final residual = 6.46526600573e-64, No Iterations 2
DILUPBiCGStab:  Solving for ILambda_34_0, Initial residual = 2.66538750318e-16, Final residual = 8.44959247829e-64, No Iterations 2
DILUPBiCGStab:  Solving for ILambda_35_0, Initial residual = 2.96908330422e-16, Final residual = 6.72830386627e-64, No Iterations 2
DILUPBiCGStab:  Solving for ILambda_36_0, Initial residual = 3.28844249902e-16, Final residual = 9.55179775639e-64, No Iterations 2
DILUPBiCGStab:  Solving for ILambda_37_0, Initial residual = 2.79069465318e-16, Final residual = 6.05471670601e-64, No Iterations 2
DILUPBiCGStab:  Solving for ILambda_38_0, Initial residual = 2.64276260109e-16, Final residual = 4.22558188644e-63, No Iterations 2
DILUPBiCGStab:  Solving for ILambda_39_0, Initial residual = 1.73167519795e-16, Final residual = 6.16101095746e-64, No Iterations 2
DILUPBiCGStab:  Solving for ILambda_40_0, Initial residual = 1.81173254379e-16, Final residual = 2.00760426979e-61, No Iterations 17
DILUPBiCGStab:  Solving for ILambda_41_0, Initial residual = 2.40955207192e-16, Final residual = 3.73785519419e-61, No Iterations 20
DILUPBiCGStab:  Solving for ILambda_42_0, Initial residual = 2.65407505214e-16, Final residual = 1.11612930691e-61, No Iterations 23
DILUPBiCGStab:  Solving for ILambda_43_0, Initial residual = 3.03608782193e-16, Final residual = 1.21792913182e-61, No Iterations 24
DILUPBiCGStab:  Solving for ILambda_44_0, Initial residual = 3.13006818444e-16, Final residual = 3.53760429162e-61, No Iterations 22
DILUPBiCGStab:  Solving for ILambda_45_0, Initial residual = 2.84812709693e-16, Final residual = 2.55491238737e-61, No Iterations 22
DILUPBiCGStab:  Solving for ILambda_46_0, Initial residual = 2.51832563963e-16, Final residual = 8.50517961287e-62, No Iterations 21
DILUPBiCGStab:  Solving for ILambda_47_0, Initial residual = 1.85872272504e-16, Final residual = 5.31529957655e-61, No Iterations 17
DILUPBiCGStab:  Solving for ILambda_48_0, Initial residual = 1.81869405212e-16, Final residual = 2.20944716206e-63, No Iterations 9
DILUPBiCGStab:  Solving for ILambda_49_0, Initial residual = 2.56009468963e-16, Final residual = 6.83591167081e-61, No Iterations 9
DILUPBiCGStab:  Solving for ILambda_50_0, Initial residual = 2.88728558131e-16, Final residual = 6.45813227213e-61, No Iterations 11
DILUPBiCGStab:  Solving for ILambda_51_0, Initial residual = 3.05349159277e-16, Final residual = 7.91221730836e-63, No Iterations 8
DILUPBiCGStab:  Solving for ILambda_52_0, Initial residual = 2.88119426151e-16, Final residual = 8.39141752861e-63, No Iterations 9
DILUPBiCGStab:  Solving for ILambda_53_0, Initial residual = 2.53485922192e-16, Final residual = 1.07553611211e-61, No Iterations 8
DILUPBiCGStab:  Solving for ILambda_54_0, Initial residual = 2.37474453025e-16, Final residual = 1.63997567522e-61, No Iterations 9
DILUPBiCGStab:  Solving for ILambda_55_0, Initial residual = 1.81086235524e-16, Final residual = 2.794224595e-62, No Iterations 8
DILUPBiCGStab:  Solving for ILambda_56_0, Initial residual = 1.97532798962e-16, Final residual = 8.38867118034e-61, No Iterations 17
DILUPBiCGStab:  Solving for ILambda_57_0, Initial residual = 2.47916715526e-16, Final residual = 1.55863087383e-61, No Iterations 21
DILUPBiCGStab:  Solving for ILambda_58_0, Initial residual = 3.03173687923e-16, Final residual = 4.5194552432e-61, No Iterations 22
DILUPBiCGStab:  Solving for ILambda_59_0, Initial residual = 3.00041009173e-16, Final residual = 5.3568993554e-61, No Iterations 23
DILUPBiCGStab:  Solving for ILambda_60_0, Initial residual = 2.91339123756e-16, Final residual = 1.35951032094e-61, No Iterations 24
DILUPBiCGStab:  Solving for ILambda_61_0, Initial residual = 2.69497391359e-16, Final residual = 1.06871567121e-61, No Iterations 22
DILUPBiCGStab:  Solving for ILambda_62_0, Initial residual = 2.46872489276e-16, Final residual = 7.39568653366e-61, No Iterations 21
DILUPBiCGStab:  Solving for ILambda_63_0, Initial residual = 1.78127594483e-16, Final residual = 3.52905960684e-62, No Iterations 17
DILUPBiCGStab:  Solving for ILambda_64_0, Initial residual = 1.66815143441e-16, Final residual = 8.9543699125e-61, No Iterations 9
DILUPBiCGStab:  Solving for ILambda_65_0, Initial residual = 2.3381966115e-16, Final residual = 4.01646255396e-62, No Iterations 8
DILUPBiCGStab:  Solving for ILambda_66_0, Initial residual = 2.7410939063e-16, Final residual = 1.03915413169e-62, No Iterations 9
[...]
DILUPBiCGStab:  Solving for ILambda_107_0, Initial residual = 5.9955990522e-17, Final residual = 4.99904244428e-64, No Iterations 21
DILUPBiCGStab:  Solving for ILambda_108_0, Initial residual = 7.20951206785e-17, Final residual = 2.80751711258e-63, No Iterations 21
DILUPBiCGStab:  Solving for ILambda_109_0, Initial residual = 7.14424792722e-17, Final residual = 4.33980018157e-61, No Iterations 20
DILUPBiCGStab:  Solving for ILambda_110_0, Initial residual = 6.62431027357e-17, Final residual = 1.50469277228e-61, No Iterations 19
DILUPBiCGStab:  Solving for ILambda_111_0, Initial residual = 4.56631437249e-17, Final residual = 5.85727616375e-61, No Iterations 16
DILUPBiCGStab:  Solving for ILambda_112_0, Initial residual = 4.52498041676e-17, Final residual = 1.39321782845e-64, No Iterations 2
DILUPBiCGStab:  Solving for ILambda_113_0, Initial residual = 6.58297631784e-17, Final residual = 1.41867041223e-64, No Iterations 2
DILUPBiCGStab:  Solving for ILambda_114_0, Initial residual = 7.19645923972e-17, Final residual = 1.29540466312e-64, No Iterations 2
DILUPBiCGStab:  Solving for ILambda_115_0, Initial residual = 7.08333472931e-17, Final residual = 1.21515674965e-64, No Iterations 2
DILUPBiCGStab:  Solving for ILambda_116_0, Initial residual = 6.25448014335e-17, Final residual = 2.11843544152e-64, No Iterations 2
DILUPBiCGStab:  Solving for ILambda_117_0, Initial residual = 6.16528581783e-17, Final residual = 1.08081012589e-64, No Iterations 2
DILUPBiCGStab:  Solving for ILambda_118_0, Initial residual = 6.58080084648e-17, Final residual = 2.8928204996e-64, No Iterations 2
DILUPBiCGStab:  Solving for ILambda_119_0, Initial residual = 4.75340490895e-17, Final residual = 3.76232729019e-64, No Iterations 2
DILUPBiCGStab:  Solving for ILambda_120_0, Initial residual = 4.88610866155e-17, Final residual = 6.04809653423e-62, No Iterations 16
DILUPBiCGStab:  Solving for ILambda_121_0, Initial residual = 6.45679897929e-17, Final residual = 1.30267472805e-61, No Iterations 20
DILUPBiCGStab:  Solving for ILambda_122_0, Initial residual = 7.06375548712e-17, Final residual = 4.06262102373e-61, No Iterations 20
DILUPBiCGStab:  Solving for ILambda_123_0, Initial residual = 7.55323654181e-17, Final residual = 1.60684888041e-62, No Iterations 21
DILUPBiCGStab:  Solving for ILambda_124_0, Initial residual = 5.90640472668e-17, Final residual = 2.49580294198e-63, No Iterations 22
DILUPBiCGStab:  Solving for ILambda_125_0, Initial residual = 5.79328021626e-17, Final residual = 6.89096916942e-61, No Iterations 21
DILUPBiCGStab:  Solving for ILambda_126_0, Initial residual = 6.15440846106e-17, Final residual = 1.13830161648e-61, No Iterations 19
DILUPBiCGStab:  Solving for ILambda_127_0, Initial residual = 4.47276910425e-17, Final residual = 3.40909872958e-61, No Iterations 16
min/max(T) = 1000, 1000
PIMPLE: iteration 10
Radiation solver iter: 0
DILUPBiCGStab:  Solving for ILambda_0_0, Initial residual = 4.71642189593e-17, Final residual = 9.11252080903e-65, No Iterations 2
DILUPBiCGStab:  Solving for ILambda_1_0, Initial residual = 6.8462083517e-17, Final residual = 1.25038064376e-64, No Iterations 2
DILUPBiCGStab:  Solving for ILambda_2_0, Initial residual = 7.60109691161e-17, Final residual = 4.17808938083e-64, No Iterations 2
DILUPBiCGStab:  Solving for ILambda_3_0, Initial residual = 7.74902896369e-17, Final residual = 1.80149372443e-64, No Iterations 2
DILUPBiCGStab:  Solving for ILambda_4_0, Initial residual = 8.44953073975e-17, Final residual = 1.83565342241e-64, No Iterations 2
DILUPBiCGStab:  Solving for ILambda_5_0, Initial residual = 7.17035358347e-17, Final residual = 1.17080585632e-64, No Iterations 2
DILUPBiCGStab:  Solving for ILambda_6_0, Initial residual = 6.88101589336e-17, Final residual = 1.08878020005e-64, No Iterations 2
DILUPBiCGStab:  Solving for ILambda_7_0, Initial residual = 4.80126527874e-17, Final residual = 8.75516796422e-64, No Iterations 2
DILUPBiCGStab:  Solving for ILambda_8_0, Initial residual = 4.70989548186e-17, Final residual = 6.26098136003e-61, No Iterations 16
DILUPBiCGStab:  Solving for ILambda_9_0, Initial residual = 6.4850801069e-17, Final residual = 4.97975614377e-62, No Iterations 19
DILUPBiCGStab:  Solving for ILambda_10_0, Initial residual = 7.98397986995e-17, Final residual = 2.03598306757e-63, No Iterations 21
DILUPBiCGStab:  Solving for ILambda_11_0, Initial residual = 7.62720256786e-17, Final residual = 6.26182478798e-61, No Iterations 20
DILUPBiCGStab:  Solving for ILambda_12_0, Initial residual = 8.68230617465e-17, Final residual = 2.9187967923e-64, No Iterations 21
DILUPBiCGStab:  Solving for ILambda_13_0, Initial residual = 7.677238409e-17, Final residual = 4.56881967519e-62, No Iterations 21
DILUPBiCGStab:  Solving for ILambda_14_0, Initial residual = 6.66999517201e-17, Final residual = 9.90969335999e-62, No Iterations 19
DILUPBiCGStab:  Solving for ILambda_15_0, Initial residual = 4.9883558152e-17, Final residual = 1.31420471487e-62, No Iterations 16
DILUPBiCGStab:  Solving for ILambda_16_0, Initial residual = 4.9078633751e-17, Final residual = 2.37681895901e-61, No Iterations 8
DILUPBiCGStab:  Solving for ILambda_17_0, Initial residual = 7.04852718764e-17, Final residual = 8.98633789022e-63, No Iterations 8
DILUPBiCGStab:  Solving for ILambda_18_0, Initial residual = 6.99414040378e-17, Final residual = 2.37939226826e-61, No Iterations 8
DILUPBiCGStab:  Solving for ILambda_19_0, Initial residual = 7.24867055223e-17, Final residual = 4.63384667202e-65, No Iterations 8
DILUPBiCGStab:  Solving for ILambda_20_0, Initial residual = 7.64678181005e-17, Final residual = 9.35275878445e-63, No Iterations 7
DILUPBiCGStab:  Solving for ILambda_21_0, Initial residual = 7.8578025314e-17, Final residual = 4.23139360393e-63, No Iterations 8
DILUPBiCGStab:  Solving for ILambda_22_0, Initial residual = 6.6134329168e-17, Final residual = 1.983400576e-63, No Iterations 8
DILUPBiCGStab:  Solving for ILambda_23_0, Initial residual = 4.76210679436e-17, Final residual = 3.17408191741e-62, No Iterations 7
DILUPBiCGStab:  Solving for ILambda_24_0, Initial residual = 4.98182940114e-17, Final residual = 6.19102111832e-65, No Iterations 17
DILUPBiCGStab:  Solving for ILambda_25_0, Initial residual = 7.20298565379e-17, Final residual = 1.07695008876e-61, No Iterations 19
DILUPBiCGStab:  Solving for ILambda_26_0, Initial residual = 7.41183090379e-17, Final residual = 7.95103416446e-67, No Iterations 21
DILUPBiCGStab:  Solving for ILambda_27_0, Initial residual = 7.84910064599e-17, Final residual = 2.06258277219e-63, No Iterations 21
DILUPBiCGStab:  Solving for ILambda_28_0, Initial residual = 8.07534966682e-17, Final residual = 7.72868108017e-65, No Iterations 21
DILUPBiCGStab:  Solving for ILambda_29_0, Initial residual = 7.42923467462e-17, Final residual = 5.28347939941e-62, No Iterations 20
DILUPBiCGStab:  Solving for ILambda_30_0, Initial residual = 6.39371031002e-17, Final residual = 6.19068163831e-62, No Iterations 19
DILUPBiCGStab:  Solving for ILambda_31_0, Initial residual = 4.85347659124e-17, Final residual = 2.12994687064e-61, No Iterations 16
DILUPBiCGStab:  Solving for ILambda_32_0, Initial residual = 1.68555520524e-16, Final residual = 9.44815931484e-64, No Iterations 2
DILUPBiCGStab:  Solving for ILambda_33_0, Initial residual = 2.42434527713e-16, Final residual = 6.73681911997e-64, No Iterations 2
DILUPBiCGStab:  Solving for ILambda_34_0, Initial residual = 2.77503125943e-16, Final residual = 8.34110748944e-64, No Iterations 2
DILUPBiCGStab:  Solving for ILambda_35_0, Initial residual = 2.9247036886e-16, Final residual = 1.15191241341e-63, No Iterations 2
DILUPBiCGStab:  Solving for ILambda_36_0, Initial residual = 3.31889909798e-16, Final residual = 1.119720364e-63, No Iterations 2
DILUPBiCGStab:  Solving for ILambda_37_0, Initial residual = 2.87336256464e-16, Final residual = 2.59959617429e-63, No Iterations 2
DILUPBiCGStab:  Solving for ILambda_38_0, Initial residual = 2.72978145526e-16, Final residual = 7.73184956426e-64, No Iterations 2
DILUPBiCGStab:  Solving for ILambda_39_0, Initial residual = 1.70643973024e-16, Final residual = 3.46064607793e-63, No Iterations 2
DILUPBiCGStab:  Solving for ILambda_40_0, Initial residual = 1.6846850167e-16, Final residual = 1.37161658763e-62, No Iterations 17
DILUPBiCGStab:  Solving for ILambda_41_0, Initial residual = 2.43739810526e-16, Final residual = 7.84243151833e-61, No Iterations 21
DILUPBiCGStab:  Solving for ILambda_42_0, Initial residual = 2.79852635005e-16, Final residual = 3.27353696633e-61, No Iterations 22
DILUPBiCGStab:  Solving for ILambda_43_0, Initial residual = 3.07611649485e-16, Final residual = 6.46745857312e-61, No Iterations 23
DILUPBiCGStab:  Solving for ILambda_44_0, Initial residual = 3.21969760423e-16, Final residual = 2.68113872656e-61, No Iterations 23
DILUPBiCGStab:  Solving for ILambda_45_0, Initial residual = 2.91600180318e-16, Final residual = 7.75289831527e-61, No Iterations 22
DILUPBiCGStab:  Solving for ILambda_46_0, Initial residual = 2.53572941047e-16, Final residual = 1.64842275215e-62, No Iterations 21
DILUPBiCGStab:  Solving for ILambda_47_0, Initial residual = 1.84218914274e-16, Final residual = 1.79989151035e-61, No Iterations 17
DILUPBiCGStab:  Solving for ILambda_48_0, Initial residual = 1.77692500212e-16, Final residual = 1.83280430382e-61, No Iterations 8
DILUPBiCGStab:  Solving for ILambda_49_0, Initial residual = 2.50962375422e-16, Final residual = 1.5518264996e-62, No Iterations 8
DILUPBiCGStab:  Solving for ILambda_50_0, Initial residual = 2.86379049068e-16, Final residual = 1.0387960395e-61, No Iterations 8
DILUPBiCGStab:  Solving for ILambda_51_0, Initial residual = 3.07611649485e-16, Final residual = 1.96907541695e-62, No Iterations 9
DILUPBiCGStab:  Solving for ILambda_52_0, Initial residual = 2.84812709693e-16, Final residual = 2.50799646024e-63, No Iterations 9
DILUPBiCGStab:  Solving for ILambda_53_0, Initial residual = 2.62013769901e-16, Final residual = 1.80603142279e-63, No Iterations 9
DILUPBiCGStab:  Solving for ILambda_54_0, Initial residual = 2.33906680005e-16, Final residual = 9.28304821418e-64, No Iterations 8
DILUPBiCGStab:  Solving for ILambda_55_0, Initial residual = 1.78040575628e-16, Final residual = 4.23404024196e-61, No Iterations 8
DILUPBiCGStab:  Solving for ILambda_56_0, Initial residual = 1.82739593754e-16, Final residual = 8.05810816936e-62, No Iterations 18
DILUPBiCGStab:  Solving for ILambda_57_0, Initial residual = 2.56009468963e-16, Final residual = 1.16148148048e-61, No Iterations 20
DILUPBiCGStab:  Solving for ILambda_58_0, Initial residual = 2.95167953339e-16, Final residual = 4.74304044492e-61, No Iterations 22
DILUPBiCGStab:  Solving for ILambda_59_0, Initial residual = 2.97865537818e-16, Final residual = 9.00857254122e-62, No Iterations 23
DILUPBiCGStab:  Solving for ILambda_60_0, Initial residual = 2.75588711151e-16, Final residual = 2.84900619411e-61, No Iterations 23
DILUPBiCGStab:  Solving for ILambda_61_0, Initial residual = 2.77764182505e-16, Final residual = 6.35866557969e-61, No Iterations 22
DILUPBiCGStab:  Solving for ILambda_62_0, Initial residual = 2.49744111463e-16, Final residual = 3.38586122633e-61, No Iterations 22
DILUPBiCGStab:  Solving for ILambda_63_0, Initial residual = 1.75081934587e-16, Final residual = 6.08739172519e-61, No Iterations 18
DILUPBiCGStab:  Solving for ILambda_64_0, Initial residual = 1.50194542295e-16, Final residual = 3.59299263963e-62, No Iterations 8
DILUPBiCGStab:  Solving for ILambda_65_0, Initial residual = 2.36778302192e-16, Final residual = 3.95981855086e-62, No Iterations 9
DILUPBiCGStab:  Solving for ILambda_66_0, Initial residual = 2.68801240526e-16, Final residual = 1.33382179404e-62, No Iterations 9
DILUPBiCGStab:  Solving for ILambda_67_0, Initial residual = 2.54530148442e-16, Final residual = 7.6578848184e-61, No Iterations 8
DILUPBiCGStab:  Solving for ILambda_68_0, Initial residual = 2.65581542922e-16, Final residual = 3.62071233956e-62, No Iterations 9
DILUPBiCGStab:  Solving for ILambda_69_0, Initial residual = 2.78373314485e-16, Final residual = 3.03182743331e-64, No Iterations 9
DILUPBiCGStab:  Solving for ILambda_70_0, Initial residual = 2.55574374692e-16, Final residual = 9.27411478312e-61, No Iterations 8
DILUPBiCGStab:  Solving for ILambda_71_0, Initial residual = 1.52631070211e-16, Final residual = 3.14038152192e-62, No Iterations 9
DILUPBiCGStab:  Solving for ILambda_72_0, Initial residual = 1.55415673545e-16, Final residual = 6.47166877812e-65, No Iterations 18
DILUPBiCGStab:  Solving for ILambda_73_0, Initial residual = 2.41912414588e-16, Final residual = 5.61255298794e-61, No Iterations 21
DILUPBiCGStab:  Solving for ILambda_74_0, Initial residual = 2.51484488547e-16, Final residual = 2.43734707086e-62, No Iterations 23
DILUPBiCGStab:  Solving for ILambda_75_0, Initial residual = 2.75936786568e-16, Final residual = 7.47340210363e-61, No Iterations 22
DILUPBiCGStab:  Solving for ILambda_76_0, Initial residual = 2.75066598026e-16, Final residual = 9.39364595521e-62, No Iterations 23
DILUPBiCGStab:  Solving for ILambda_77_0, Initial residual = 2.83594445735e-16, Final residual = 5.36014495553e-61, No Iterations 22
DILUPBiCGStab:  Solving for ILambda_78_0, Initial residual = 2.47568640109e-16, Final residual = 2.03085431118e-61, No Iterations 21
DILUPBiCGStab:  Solving for ILambda_79_0, Initial residual = 1.75081934587e-16, Final residual = 5.98635528584e-67, No Iterations 18
DILUPBiCGStab:  Solving for ILambda_80_0, Initial residual = 1.5593778667e-16, Final residual = 1.07615121194e-63, No Iterations 2
DILUPBiCGStab:  Solving for ILambda_81_0, Initial residual = 2.5113641313e-16, Final residual = 7.65967890829e-64, No Iterations 2
DILUPBiCGStab:  Solving for ILambda_82_0, Initial residual = 2.71237768443e-16, Final residual = 1.41597164522e-63, No Iterations 2
DILUPBiCGStab:  Solving for ILambda_83_0, Initial residual = 3.03347725631e-16, Final residual = 1.02105118203e-63, No Iterations 2
DILUPBiCGStab:  Solving for ILambda_84_0, Initial residual = 2.48351809797e-16, Final residual = 8.38455025889e-64, No Iterations 2
DILUPBiCGStab:  Solving for ILambda_85_0, Initial residual = 2.69062297089e-16, Final residual = 7.38255669542e-64, No Iterations 2
DILUPBiCGStab:  Solving for ILambda_86_0, Initial residual = 2.3860569813e-16, Final residual = 3.8899383028e-63, No Iterations 2
DILUPBiCGStab:  Solving for ILambda_87_0, Initial residual = 1.50890693128e-16, Final residual = 6.68209405252e-64, No Iterations 2
DILUPBiCGStab:  Solving for ILambda_88_0, Initial residual = 1.54458466149e-16, Final residual = 3.16279733555e-61, No Iterations 17
DILUPBiCGStab:  Solving for ILambda_89_0, Initial residual = 2.49309017192e-16, Final residual = 3.26498245676e-62, No Iterations 20
DILUPBiCGStab:  Solving for ILambda_90_0, Initial residual = 2.79417540735e-16, Final residual = 1.9731886607e-61, No Iterations 23
DILUPBiCGStab:  Solving for ILambda_91_0, Initial residual = 2.64972410943e-16, Final residual = 9.55630133849e-62, No Iterations 24
DILUPBiCGStab:  Solving for ILambda_92_0, Initial residual = 2.56009468963e-16, Final residual = 5.53058747031e-61, No Iterations 24
DILUPBiCGStab:  Solving for ILambda_93_0, Initial residual = 2.66016637193e-16, Final residual = 7.80456514988e-61, No Iterations 22
DILUPBiCGStab:  Solving for ILambda_94_0, Initial residual = 2.44000867088e-16, Final residual = 5.42688143625e-61, No Iterations 21
DILUPBiCGStab:  Solving for ILambda_95_0, Initial residual = 1.50455598857e-16, Final residual = 1.74991529996e-61, No Iterations 17
DILUPBiCGStab:  Solving for ILambda_96_0, Initial residual = 4.74035208082e-17, Final residual = 3.89829306354e-62, No Iterations 9
DILUPBiCGStab:  Solving for ILambda_97_0, Initial residual = 5.85201794282e-17, Final residual = 2.07745127445e-62, No Iterations 9
DILUPBiCGStab:  Solving for ILambda_98_0, Initial residual = 5.79980663032e-17, Final residual = 2.57794586772e-61, No Iterations 8
DILUPBiCGStab:  Solving for ILambda_99_0, Initial residual = 6.27188391419e-17, Final residual = 3.75827961075e-61, No Iterations 9
DILUPBiCGStab:  Solving for ILambda_100_0, Initial residual = 7.32698752098e-17, Final residual = 6.40826025792e-65, No Iterations 9
DILUPBiCGStab:  Solving for ILambda_101_0, Initial residual = 7.32698752098e-17, Final residual = 8.3131074779e-62, No Iterations 8
DILUPBiCGStab:  Solving for ILambda_102_0, Initial residual = 7.20951206785e-17, Final residual = 3.38030896727e-61, No Iterations 8
DILUPBiCGStab:  Solving for ILambda_103_0, Initial residual = 4.68161435426e-17, Final residual = 5.43121457078e-63, No Iterations 8
DILUPBiCGStab:  Solving for ILambda_104_0, Initial residual = 4.43143514852e-17, Final residual = 1.17359118891e-62, No Iterations 16
DILUPBiCGStab:  Solving for ILambda_105_0, Initial residual = 5.88247454178e-17, Final residual = 1.62130106849e-61, No Iterations 20
DILUPBiCGStab:  Solving for ILambda_106_0, Initial residual = 5.76717456001e-17, Final residual = 1.73911421086e-61, No Iterations 20
DILUPBiCGStab:  Solving for ILambda_107_0, Initial residual = 5.97601981001e-17, Final residual = 1.65184059308e-61, No Iterations 21
DILUPBiCGStab:  Solving for ILambda_108_0, Initial residual = 6.81575175274e-17, Final residual = 3.52772750417e-62, No Iterations 21
DILUPBiCGStab:  Solving for ILambda_109_0, Initial residual = 7.2878290366e-17, Final residual = 1.62913126357e-61, No Iterations 21
DILUPBiCGStab:  Solving for ILambda_110_0, Initial residual = 6.5895027319e-17, Final residual = 1.21522733036e-61, No Iterations 19
DILUPBiCGStab:  Solving for ILambda_111_0, Initial residual = 4.56196342978e-17, Final residual = 1.27227582975e-61, No Iterations 16
DILUPBiCGStab:  Solving for ILambda_112_0, Initial residual = 4.55543701571e-17, Final residual = 1.11084578525e-64, No Iterations 2
DILUPBiCGStab:  Solving for ILambda_113_0, Initial residual = 6.60908197409e-17, Final residual = 3.01934500227e-64, No Iterations 2
DILUPBiCGStab:  Solving for ILambda_114_0, Initial residual = 7.25302149493e-17, Final residual = 1.36693249216e-64, No Iterations 2
DILUPBiCGStab:  Solving for ILambda_115_0, Initial residual = 7.34221582046e-17, Final residual = 3.38250108954e-62, No Iterations 2
DILUPBiCGStab:  Solving for ILambda_116_0, Initial residual = 6.06956507824e-17, Final residual = 9.57074969696e-65, No Iterations 2
DILUPBiCGStab:  Solving for ILambda_117_0, Initial residual = 6.13265374752e-17, Final residual = 1.79821136109e-64, No Iterations 2
DILUPBiCGStab:  Solving for ILambda_118_0, Initial residual = 6.58732726055e-17, Final residual = 1.04780937541e-64, No Iterations 2
DILUPBiCGStab:  Solving for ILambda_119_0, Initial residual = 4.79908980739e-17, Final residual = 1.42786036654e-64, No Iterations 2
DILUPBiCGStab:  Solving for ILambda_120_0, Initial residual = 4.77733509384e-17, Final residual = 3.39840399026e-62, No Iterations 16
DILUPBiCGStab:  Solving for ILambda_121_0, Initial residual = 6.3850084246e-17, Final residual = 6.74213703587e-62, No Iterations 20
DILUPBiCGStab:  Solving for ILambda_122_0, Initial residual = 6.88754230743e-17, Final residual = 5.19870451731e-62, No Iterations 21
DILUPBiCGStab:  Solving for ILambda_123_0, Initial residual = 7.57716672671e-17, Final residual = 8.59124346466e-63, No Iterations 21
DILUPBiCGStab:  Solving for ILambda_124_0, Initial residual = 5.92815944022e-17, Final residual = 2.90804366108e-62, No Iterations 21
DILUPBiCGStab:  Solving for ILambda_125_0, Initial residual = 5.63664627876e-17, Final residual = 1.05128972978e-61, No Iterations 21
DILUPBiCGStab:  Solving for ILambda_126_0, Initial residual = 6.31756881262e-17, Final residual = 5.83007640034e-61, No Iterations 20
DILUPBiCGStab:  Solving for ILambda_127_0, Initial residual = 4.44013703394e-17, Final residual = 3.14870469198e-62, No Iterations 16
min/max(T) = 1000, 1000
ExecutionTime = 1.15 s  ClockTime = 2 s

writeObjects writeObjects1.writeObjects write:
    writing object a
    writing object qem
End

