/*---------------------------------------------------------------------------*\
| =========                 |                                                 |
| \\      /  F ield         | OpenFOAM: The Open Source CFD Toolbox           |
|  \\    /   O peration     | Version:  2306                                  |
|   \\  /    A nd           | Website:  www.openfoam.com                      |
|    \\/     M anipulation  |                                                 |
\*---------------------------------------------------------------------------*/
Build  : _fbf00d6b-20230626 OPENFOAM=2306 version=2306
Arch   : "LSB;label=32;scalar=64"
Exec   : fireRADFoam_MaCFP
Date   : Mar 12 2024
Time   : 19:28:54
Host   : pop-os
PID    : 172812
I/O    : uncollated
Case   : /home/rafay/Desktop/Study/Radiative_Heat_Transfer/Local_copy_RHT2324/01_Projects/02_Rafay/Case_1_q1D_SolidAngle/new_case3/th_4-ph_8/tau_0.0001/res_2
nProcs : 1
trapFpe: Floating point exception trapping enabled (FOAM_SIGFPE).
fileModificationChecking : Monitoring run-time modified files using timeStampMaster (fileModificationSkew 5, maxFileModificationPolls 20)
allowSystemOperations : Allowing user-supplied system call operations

// * * * * * * * * * * * * * * * * * * * * * * * * * * * * * * * * * * * * * //
Create time

Create mesh for time = 0


PIMPLE: no residual control data found. Calculations will employ 10 corrector loops

Reading thermophysical properties

Selecting thermodynamics package 
{
    type            hePsiThermo;
    mixture         singleStepReactingMixture;
    transport       sutherland;
    thermo          janaf;
    energy          sensibleEnthalpy;
    equationOfState perfectGas;
    specie          specie;
}

Selecting chemistryReader foamChemistryReader
    elements not defined in "/home/rafay/Desktop/Study/Radiative_Heat_Transfer/Local_copy_RHT2324/01_Projects/02_Rafay/Case_1_q1D_SolidAngle/new_case3/th_4-ph_8/tau_0.0001/res_2/constant/reactions"
Fuel heat of combustion :47168962.4726
stoichiometric air-fuel ratio :14.6914056505
stoichiometric oxygen-fuel ratio :3.42181919285
Maximum products mass concentrations:
    H2O: 0.0818486943001
    CO2: 0.199950099979
    N2: 0.718201205721
Creating component thermo properties:
    multi-component carrier - 6 species
    no liquid components
    no solid components
Creating field rho


Reading field U

Reading/calculating face flux field phi

Selecting radiationModel fvDOM
Selecting absorptionEmissionModel constantAbsorptionEmission
Selecting scatterModel none
Selecting sootModel none
fvDOM : Allocated 128 rays with average orientation:
	I0 : dAve : 	(0.00274192284156 0.0278392098 0.0490873852123) : omega : 	0.0575094490319 : d : 	(0.0375095356919 0.38084070704 0.923879532511)
	I1 : dAve : 	(0.00812039796756 0.0267693645798 0.0490873852123) : omega : 	0.0575094490319 : d : 	(0.111087136655 0.366205212247 0.923879532511)
	I2 : dAve : 	(0.0131868107536 0.0246707876912 0.0490873852123) : omega : 	0.0575094490319 : d : 	(0.180395721254 0.337496656517 0.923879532511)
	I3 : dAve : 	(0.0177464617977 0.0216241262672 0.0490873852123) : omega : 	0.0575094490319 : d : 	(0.242771799453 0.295818293547 0.923879532511)
	I4 : dAve : 	(0.0216241262672 0.0177464617977 0.0490873852123) : omega : 	0.0575094490319 : d : 	(0.295818293547 0.242771799453 0.923879532511)
	I5 : dAve : 	(0.0246707876912 0.0131868107536 0.0490873852123) : omega : 	0.0575094490319 : d : 	(0.337496656517 0.180395721254 0.923879532511)
	I6 : dAve : 	(0.0267693645798 0.00812039796756 0.0490873852123) : omega : 	0.0575094490319 : d : 	(0.366205212247 0.111087136655 0.923879532511)
	I7 : dAve : 	(0.0278392098 0.00274192284156 0.0490873852123) : omega : 	0.0575094490319 : d : 	(0.38084070704 0.0375095356919 0.923879532511)
	I8 : dAve : 	(0.0278392098 -0.00274192284156 0.0490873852123) : omega : 	0.0575094490319 : d : 	(0.38084070704 -0.0375095356919 0.923879532511)
	I9 : dAve : 	(0.0267693645798 -0.00812039796756 0.0490873852123) : omega : 	0.0575094490319 : d : 	(0.366205212247 -0.111087136655 0.923879532511)
	I10 : dAve : 	(0.0246707876912 -0.0131868107536 0.0490873852123) : omega : 	0.0575094490319 : d : 	(0.337496656517 -0.180395721254 0.923879532511)
	I11 : dAve : 	(0.0216241262672 -0.0177464617977 0.0490873852123) : omega : 	0.0575094490319 : d : 	(0.295818293547 -0.242771799453 0.923879532511)
	I12 : dAve : 	(0.0177464617977 -0.0216241262672 0.0490873852123) : omega : 	0.0575094490319 : d : 	(0.242771799453 -0.295818293547 0.923879532511)
	I13 : dAve : 	(0.0131868107536 -0.0246707876912 0.0490873852123) : omega : 	0.0575094490319 : d : 	(0.180395721254 -0.337496656517 0.923879532511)
	I14 : dAve : 	(0.00812039796756 -0.0267693645798 0.0490873852123) : omega : 	0.0575094490319 : d : 	(0.111087136655 -0.366205212247 0.923879532511)
	I15 : dAve : 	(0.00274192284156 -0.0278392098 0.0490873852123) : omega : 	0.0575094490319 : d : 	(0.0375095356919 -0.38084070704 0.923879532511)
	I16 : dAve : 	(-0.00274192284156 -0.0278392098 0.0490873852123) : omega : 	0.0575094490319 : d : 	(-0.0375095356919 -0.38084070704 0.923879532511)
	I17 : dAve : 	(-0.00812039796756 -0.0267693645798 0.0490873852123) : omega : 	0.0575094490319 : d : 	(-0.111087136655 -0.366205212247 0.923879532511)
	I18 : dAve : 	(-0.0131868107536 -0.0246707876912 0.0490873852123) : omega : 	0.0575094490319 : d : 	(-0.180395721254 -0.337496656517 0.923879532511)
	I19 : dAve : 	(-0.0177464617977 -0.0216241262672 0.0490873852123) : omega : 	0.0575094490319 : d : 	(-0.242771799453 -0.295818293547 0.923879532511)
	I20 : dAve : 	(-0.0216241262672 -0.0177464617977 0.0490873852123) : omega : 	0.0575094490319 : d : 	(-0.295818293547 -0.242771799453 0.923879532511)
	I21 : dAve : 	(-0.0246707876912 -0.0131868107536 0.0490873852123) : omega : 	0.0575094490319 : d : 	(-0.337496656517 -0.180395721254 0.923879532511)
	I22 : dAve : 	(-0.0267693645798 -0.00812039796756 0.0490873852123) : omega : 	0.0575094490319 : d : 	(-0.366205212247 -0.111087136655 0.923879532511)
	I23 : dAve : 	(-0.0278392098 -0.00274192284156 0.0490873852123) : omega : 	0.0575094490319 : d : 	(-0.38084070704 -0.0375095356919 0.923879532511)
	I24 : dAve : 	(-0.0278392098 0.00274192284156 0.0490873852123) : omega : 	0.0575094490319 : d : 	(-0.38084070704 0.0375095356919 0.923879532511)
	I25 : dAve : 	(-0.0267693645798 0.00812039796756 0.0490873852123) : omega : 	0.0575094490319 : d : 	(-0.366205212247 0.111087136655 0.923879532511)
	I26 : dAve : 	(-0.0246707876912 0.0131868107536 0.0490873852123) : omega : 	0.0575094490319 : d : 	(-0.337496656517 0.180395721254 0.923879532511)
	I27 : dAve : 	(-0.0216241262672 0.0177464617977 0.0490873852123) : omega : 	0.0575094490319 : d : 	(-0.295818293547 0.242771799453 0.923879532511)
	I28 : dAve : 	(-0.0177464617977 0.0216241262672 0.0490873852123) : omega : 	0.0575094490319 : d : 	(-0.242771799453 0.295818293547 0.923879532511)
	I29 : dAve : 	(-0.0131868107536 0.0246707876912 0.0490873852123) : omega : 	0.0575094490319 : d : 	(-0.180395721254 0.337496656517 0.923879532511)
	I30 : dAve : 	(-0.00812039796756 0.0267693645798 0.0490873852123) : omega : 	0.0575094490319 : d : 	(-0.111087136655 0.366205212247 0.923879532511)
	I31 : dAve : 	(-0.00274192284156 0.0278392098 0.0490873852123) : omega : 	0.0575094490319 : d : 	(-0.0375095356919 0.38084070704 0.923879532511)
	I32 : dAve : 	(0.0123492826399 0.125384370808 0.0490873852123) : omega : 	0.138840091817 : d : 	(0.0905560297858 0.91943080004 0.382683432365)
	I33 : dAve : 	(0.0365732719135 0.120565919754 0.0490873852123) : omega : 	0.138840091817 : d : 	(0.268188071917 0.884097590017 0.382683432365)
	I34 : dAve : 	(0.059391770858 0.111114188018 0.0490873852123) : omega : 	0.138840091817 : d : 	(0.435513796846 0.814789005418 0.382683432365)
	I35 : dAve : 	(0.0799278773557 0.0973924003507 0.0490873852123) : omega : 	0.138840091817 : d : 	(0.586102970801 0.714168536279 0.382683432365)
	I36 : dAve : 	(0.0973924003507 0.0799278773557 0.0490873852123) : omega : 	0.138840091817 : d : 	(0.714168536279 0.586102970801 0.382683432365)
	I37 : dAve : 	(0.111114188018 0.059391770858 0.0490873852123) : omega : 	0.138840091817 : d : 	(0.814789005418 0.435513796846 0.382683432365)
	I38 : dAve : 	(0.120565919754 0.0365732719135 0.0490873852123) : omega : 	0.138840091817 : d : 	(0.884097590017 0.268188071917 0.382683432365)
	I39 : dAve : 	(0.125384370808 0.0123492826399 0.0490873852123) : omega : 	0.138840091817 : d : 	(0.91943080004 0.0905560297858 0.382683432365)
	I40 : dAve : 	(0.125384370808 -0.0123492826399 0.0490873852123) : omega : 	0.138840091817 : d : 	(0.91943080004 -0.0905560297858 0.382683432365)
	I41 : dAve : 	(0.120565919754 -0.0365732719135 0.0490873852123) : omega : 	0.138840091817 : d : 	(0.884097590017 -0.268188071917 0.382683432365)
	I42 : dAve : 	(0.111114188018 -0.059391770858 0.0490873852123) : omega : 	0.138840091817 : d : 	(0.814789005418 -0.435513796846 0.382683432365)
	I43 : dAve : 	(0.0973924003507 -0.0799278773557 0.0490873852123) : omega : 	0.138840091817 : d : 	(0.714168536279 -0.586102970801 0.382683432365)
	I44 : dAve : 	(0.0799278773557 -0.0973924003507 0.0490873852123) : omega : 	0.138840091817 : d : 	(0.586102970801 -0.714168536279 0.382683432365)
	I45 : dAve : 	(0.059391770858 -0.111114188018 0.0490873852123) : omega : 	0.138840091817 : d : 	(0.435513796846 -0.814789005418 0.382683432365)
	I46 : dAve : 	(0.0365732719135 -0.120565919754 0.0490873852123) : omega : 	0.138840091817 : d : 	(0.268188071917 -0.884097590017 0.382683432365)
	I47 : dAve : 	(0.0123492826399 -0.125384370808 0.0490873852123) : omega : 	0.138840091817 : d : 	(0.0905560297858 -0.91943080004 0.382683432365)
	I48 : dAve : 	(-0.0123492826399 -0.125384370808 0.0490873852123) : omega : 	0.138840091817 : d : 	(-0.0905560297858 -0.91943080004 0.382683432365)
	I49 : dAve : 	(-0.0365732719135 -0.120565919754 0.0490873852123) : omega : 	0.138840091817 : d : 	(-0.268188071917 -0.884097590017 0.382683432365)
	I50 : dAve : 	(-0.059391770858 -0.111114188018 0.0490873852123) : omega : 	0.138840091817 : d : 	(-0.435513796846 -0.814789005418 0.382683432365)
	I51 : dAve : 	(-0.0799278773557 -0.0973924003507 0.0490873852123) : omega : 	0.138840091817 : d : 	(-0.586102970801 -0.714168536279 0.382683432365)
	I52 : dAve : 	(-0.0973924003507 -0.0799278773557 0.0490873852123) : omega : 	0.138840091817 : d : 	(-0.714168536279 -0.586102970801 0.382683432365)
	I53 : dAve : 	(-0.111114188018 -0.059391770858 0.0490873852123) : omega : 	0.138840091817 : d : 	(-0.814789005418 -0.435513796846 0.382683432365)
	I54 : dAve : 	(-0.120565919754 -0.0365732719135 0.0490873852123) : omega : 	0.138840091817 : d : 	(-0.884097590017 -0.268188071917 0.382683432365)
	I55 : dAve : 	(-0.125384370808 -0.0123492826399 0.0490873852123) : omega : 	0.138840091817 : d : 	(-0.91943080004 -0.0905560297858 0.382683432365)
	I56 : dAve : 	(-0.125384370808 0.0123492826399 0.0490873852123) : omega : 	0.138840091817 : d : 	(-0.91943080004 0.0905560297858 0.382683432365)
	I57 : dAve : 	(-0.120565919754 0.0365732719135 0.0490873852123) : omega : 	0.138840091817 : d : 	(-0.884097590017 0.268188071917 0.382683432365)
	I58 : dAve : 	(-0.111114188018 0.059391770858 0.0490873852123) : omega : 	0.138840091817 : d : 	(-0.814789005418 0.435513796846 0.382683432365)
	I59 : dAve : 	(-0.0973924003507 0.0799278773557 0.0490873852123) : omega : 	0.138840091817 : d : 	(-0.714168536279 0.586102970801 0.382683432365)
	I60 : dAve : 	(-0.0799278773557 0.0973924003507 0.0490873852123) : omega : 	0.138840091817 : d : 	(-0.586102970801 0.714168536279 0.382683432365)
	I61 : dAve : 	(-0.059391770858 0.111114188018 0.0490873852123) : omega : 	0.138840091817 : d : 	(-0.435513796846 0.814789005418 0.382683432365)
	I62 : dAve : 	(-0.0365732719135 0.120565919754 0.0490873852123) : omega : 	0.138840091817 : d : 	(-0.268188071917 0.884097590017 0.382683432365)
	I63 : dAve : 	(-0.0123492826399 0.125384370808 0.0490873852123) : omega : 	0.138840091817 : d : 	(-0.0905560297858 0.91943080004 0.382683432365)
	I64 : dAve : 	(0.0123492826399 0.125384370808 -0.0490873852123) : omega : 	0.138840091817 : d : 	(0.0905560297858 0.91943080004 -0.382683432365)
	I65 : dAve : 	(0.0365732719135 0.120565919754 -0.0490873852123) : omega : 	0.138840091817 : d : 	(0.268188071917 0.884097590017 -0.382683432365)
	I66 : dAve : 	(0.059391770858 0.111114188018 -0.0490873852123) : omega : 	0.138840091817 : d : 	(0.435513796846 0.814789005418 -0.382683432365)
	I67 : dAve : 	(0.0799278773557 0.0973924003507 -0.0490873852123) : omega : 	0.138840091817 : d : 	(0.586102970801 0.714168536279 -0.382683432365)
	I68 : dAve : 	(0.0973924003507 0.0799278773557 -0.0490873852123) : omega : 	0.138840091817 : d : 	(0.714168536279 0.586102970801 -0.382683432365)
	I69 : dAve : 	(0.111114188018 0.059391770858 -0.0490873852123) : omega : 	0.138840091817 : d : 	(0.814789005418 0.435513796846 -0.382683432365)
	I70 : dAve : 	(0.120565919754 0.0365732719135 -0.0490873852123) : omega : 	0.138840091817 : d : 	(0.884097590017 0.268188071917 -0.382683432365)
	I71 : dAve : 	(0.125384370808 0.0123492826399 -0.0490873852123) : omega : 	0.138840091817 : d : 	(0.91943080004 0.0905560297858 -0.382683432365)
	I72 : dAve : 	(0.125384370808 -0.0123492826399 -0.0490873852123) : omega : 	0.138840091817 : d : 	(0.91943080004 -0.0905560297858 -0.382683432365)
	I73 : dAve : 	(0.120565919754 -0.0365732719135 -0.0490873852123) : omega : 	0.138840091817 : d : 	(0.884097590017 -0.268188071917 -0.382683432365)
	I74 : dAve : 	(0.111114188018 -0.059391770858 -0.0490873852123) : omega : 	0.138840091817 : d : 	(0.814789005418 -0.435513796846 -0.382683432365)
	I75 : dAve : 	(0.0973924003507 -0.0799278773557 -0.0490873852123) : omega : 	0.138840091817 : d : 	(0.714168536279 -0.586102970801 -0.382683432365)
	I76 : dAve : 	(0.0799278773557 -0.0973924003507 -0.0490873852123) : omega : 	0.138840091817 : d : 	(0.586102970801 -0.714168536279 -0.382683432365)
	I77 : dAve : 	(0.059391770858 -0.111114188018 -0.0490873852123) : omega : 	0.138840091817 : d : 	(0.435513796846 -0.814789005418 -0.382683432365)
	I78 : dAve : 	(0.0365732719135 -0.120565919754 -0.0490873852123) : omega : 	0.138840091817 : d : 	(0.268188071917 -0.884097590017 -0.382683432365)
	I79 : dAve : 	(0.0123492826399 -0.125384370808 -0.0490873852123) : omega : 	0.138840091817 : d : 	(0.0905560297858 -0.91943080004 -0.382683432365)
	I80 : dAve : 	(-0.0123492826399 -0.125384370808 -0.0490873852123) : omega : 	0.138840091817 : d : 	(-0.0905560297858 -0.91943080004 -0.382683432365)
	I81 : dAve : 	(-0.0365732719135 -0.120565919754 -0.0490873852123) : omega : 	0.138840091817 : d : 	(-0.268188071917 -0.884097590017 -0.382683432365)
	I82 : dAve : 	(-0.059391770858 -0.111114188018 -0.0490873852123) : omega : 	0.138840091817 : d : 	(-0.435513796846 -0.814789005418 -0.382683432365)
	I83 : dAve : 	(-0.0799278773557 -0.0973924003507 -0.0490873852123) : omega : 	0.138840091817 : d : 	(-0.586102970801 -0.714168536279 -0.382683432365)
	I84 : dAve : 	(-0.0973924003507 -0.0799278773557 -0.0490873852123) : omega : 	0.138840091817 : d : 	(-0.714168536279 -0.586102970801 -0.382683432365)
	I85 : dAve : 	(-0.111114188018 -0.059391770858 -0.0490873852123) : omega : 	0.138840091817 : d : 	(-0.814789005418 -0.435513796846 -0.382683432365)
	I86 : dAve : 	(-0.120565919754 -0.0365732719135 -0.0490873852123) : omega : 	0.138840091817 : d : 	(-0.884097590017 -0.268188071917 -0.382683432365)
	I87 : dAve : 	(-0.125384370808 -0.0123492826399 -0.0490873852123) : omega : 	0.138840091817 : d : 	(-0.91943080004 -0.0905560297858 -0.382683432365)
	I88 : dAve : 	(-0.125384370808 0.0123492826399 -0.0490873852123) : omega : 	0.138840091817 : d : 	(-0.91943080004 0.0905560297858 -0.382683432365)
	I89 : dAve : 	(-0.120565919754 0.0365732719135 -0.0490873852123) : omega : 	0.138840091817 : d : 	(-0.884097590017 0.268188071917 -0.382683432365)
	I90 : dAve : 	(-0.111114188018 0.059391770858 -0.0490873852123) : omega : 	0.138840091817 : d : 	(-0.814789005418 0.435513796846 -0.382683432365)
	I91 : dAve : 	(-0.0973924003507 0.0799278773557 -0.0490873852123) : omega : 	0.138840091817 : d : 	(-0.714168536279 0.586102970801 -0.382683432365)
	I92 : dAve : 	(-0.0799278773557 0.0973924003507 -0.0490873852123) : omega : 	0.138840091817 : d : 	(-0.586102970801 0.714168536279 -0.382683432365)
	I93 : dAve : 	(-0.059391770858 0.111114188018 -0.0490873852123) : omega : 	0.138840091817 : d : 	(-0.435513796846 0.814789005418 -0.382683432365)
	I94 : dAve : 	(-0.0365732719135 0.120565919754 -0.0490873852123) : omega : 	0.138840091817 : d : 	(-0.268188071917 0.884097590017 -0.382683432365)
	I95 : dAve : 	(-0.0123492826399 0.125384370808 -0.0490873852123) : omega : 	0.138840091817 : d : 	(-0.0905560297858 0.91943080004 -0.382683432365)
	I96 : dAve : 	(0.00274192284156 0.0278392098 -0.0490873852123) : omega : 	0.0575094490319 : d : 	(0.0375095356919 0.38084070704 -0.923879532511)
	I97 : dAve : 	(0.00812039796756 0.0267693645798 -0.0490873852123) : omega : 	0.0575094490319 : d : 	(0.111087136655 0.366205212247 -0.923879532511)
	I98 : dAve : 	(0.0131868107536 0.0246707876912 -0.0490873852123) : omega : 	0.0575094490319 : d : 	(0.180395721254 0.337496656517 -0.923879532511)
	I99 : dAve : 	(0.0177464617977 0.0216241262672 -0.0490873852123) : omega : 	0.0575094490319 : d : 	(0.242771799453 0.295818293547 -0.923879532511)
	I100 : dAve : 	(0.0216241262672 0.0177464617977 -0.0490873852123) : omega : 	0.0575094490319 : d : 	(0.295818293547 0.242771799453 -0.923879532511)
	I101 : dAve : 	(0.0246707876912 0.0131868107536 -0.0490873852123) : omega : 	0.0575094490319 : d : 	(0.337496656517 0.180395721254 -0.923879532511)
	I102 : dAve : 	(0.0267693645798 0.00812039796756 -0.0490873852123) : omega : 	0.0575094490319 : d : 	(0.366205212247 0.111087136655 -0.923879532511)
	I103 : dAve : 	(0.0278392098 0.00274192284156 -0.0490873852123) : omega : 	0.0575094490319 : d : 	(0.38084070704 0.0375095356919 -0.923879532511)
	I104 : dAve : 	(0.0278392098 -0.00274192284156 -0.0490873852123) : omega : 	0.0575094490319 : d : 	(0.38084070704 -0.0375095356919 -0.923879532511)
	I105 : dAve : 	(0.0267693645798 -0.00812039796756 -0.0490873852123) : omega : 	0.0575094490319 : d : 	(0.366205212247 -0.111087136655 -0.923879532511)
	I106 : dAve : 	(0.0246707876912 -0.0131868107536 -0.0490873852123) : omega : 	0.0575094490319 : d : 	(0.337496656517 -0.180395721254 -0.923879532511)
	I107 : dAve : 	(0.0216241262672 -0.0177464617977 -0.0490873852123) : omega : 	0.0575094490319 : d : 	(0.295818293547 -0.242771799453 -0.923879532511)
	I108 : dAve : 	(0.0177464617977 -0.0216241262672 -0.0490873852123) : omega : 	0.0575094490319 : d : 	(0.242771799453 -0.295818293547 -0.923879532511)
	I109 : dAve : 	(0.0131868107536 -0.0246707876912 -0.0490873852123) : omega : 	0.0575094490319 : d : 	(0.180395721254 -0.337496656517 -0.923879532511)
	I110 : dAve : 	(0.00812039796756 -0.0267693645798 -0.0490873852123) : omega : 	0.0575094490319 : d : 	(0.111087136655 -0.366205212247 -0.923879532511)
	I111 : dAve : 	(0.00274192284156 -0.0278392098 -0.0490873852123) : omega : 	0.0575094490319 : d : 	(0.0375095356919 -0.38084070704 -0.923879532511)
	I112 : dAve : 	(-0.00274192284156 -0.0278392098 -0.0490873852123) : omega : 	0.0575094490319 : d : 	(-0.0375095356919 -0.38084070704 -0.923879532511)
	I113 : dAve : 	(-0.00812039796756 -0.0267693645798 -0.0490873852123) : omega : 	0.0575094490319 : d : 	(-0.111087136655 -0.366205212247 -0.923879532511)
	I114 : dAve : 	(-0.0131868107536 -0.0246707876912 -0.0490873852123) : omega : 	0.0575094490319 : d : 	(-0.180395721254 -0.337496656517 -0.923879532511)
	I115 : dAve : 	(-0.0177464617977 -0.0216241262672 -0.0490873852123) : omega : 	0.0575094490319 : d : 	(-0.242771799453 -0.295818293547 -0.923879532511)
	I116 : dAve : 	(-0.0216241262672 -0.0177464617977 -0.0490873852123) : omega : 	0.0575094490319 : d : 	(-0.295818293547 -0.242771799453 -0.923879532511)
	I117 : dAve : 	(-0.0246707876912 -0.0131868107536 -0.0490873852123) : omega : 	0.0575094490319 : d : 	(-0.337496656517 -0.180395721254 -0.923879532511)
	I118 : dAve : 	(-0.0267693645798 -0.00812039796756 -0.0490873852123) : omega : 	0.0575094490319 : d : 	(-0.366205212247 -0.111087136655 -0.923879532511)
	I119 : dAve : 	(-0.0278392098 -0.00274192284156 -0.0490873852123) : omega : 	0.0575094490319 : d : 	(-0.38084070704 -0.0375095356919 -0.923879532511)
	I120 : dAve : 	(-0.0278392098 0.00274192284156 -0.0490873852123) : omega : 	0.0575094490319 : d : 	(-0.38084070704 0.0375095356919 -0.923879532511)
	I121 : dAve : 	(-0.0267693645798 0.00812039796756 -0.0490873852123) : omega : 	0.0575094490319 : d : 	(-0.366205212247 0.111087136655 -0.923879532511)
	I122 : dAve : 	(-0.0246707876912 0.0131868107536 -0.0490873852123) : omega : 	0.0575094490319 : d : 	(-0.337496656517 0.180395721254 -0.923879532511)
	I123 : dAve : 	(-0.0216241262672 0.0177464617977 -0.0490873852123) : omega : 	0.0575094490319 : d : 	(-0.295818293547 0.242771799453 -0.923879532511)
	I124 : dAve : 	(-0.0177464617977 0.0216241262672 -0.0490873852123) : omega : 	0.0575094490319 : d : 	(-0.242771799453 0.295818293547 -0.923879532511)
	I125 : dAve : 	(-0.0131868107536 0.0246707876912 -0.0490873852123) : omega : 	0.0575094490319 : d : 	(-0.180395721254 0.337496656517 -0.923879532511)
	I126 : dAve : 	(-0.00812039796756 0.0267693645798 -0.0490873852123) : omega : 	0.0575094490319 : d : 	(-0.111087136655 0.366205212247 -0.923879532511)
	I127 : dAve : 	(-0.00274192284156 0.0278392098 -0.0490873852123) : omega : 	0.0575094490319 : d : 	(-0.0375095356919 0.38084070704 -0.923879532511)
Total omega : 12.5663706144

Courant Number mean: 0 max: 0

Starting time loop

Sampled set:
    data -> csv

Sampled set:
    data -> csv

Sampled surface:
    yNormal -> ensight
        sampledCuttingPlane: yNormal : plane:(0 1 0) (0 0 0) offsets:(0)

Sampled surface:
    zNormal -> ensight
        sampledCuttingPlane: zNormal : plane:(0 0 1) (0 0 0) offsets:(0)

Sampled surface:
    patchAll -> ensight
        sampledPatch: patchAll : patches:(".*WW.*")

deltaT = 1
Time = 1

PIMPLE: iteration 1
Radiation solver iter: 0
DILUPBiCGStab:  Solving for ILambda_0_0, Initial residual = 1, Final residual = 1.43899256734e-73, No Iterations 3
DILUPBiCGStab:  Solving for ILambda_1_0, Initial residual = 1, Final residual = 2.43103472706e-75, No Iterations 3
DILUPBiCGStab:  Solving for ILambda_2_0, Initial residual = 1, Final residual = 4.07761477517e-73, No Iterations 3
DILUPBiCGStab:  Solving for ILambda_3_0, Initial residual = 1, Final residual = 8.5185669923e-73, No Iterations 3
DILUPBiCGStab:  Solving for ILambda_4_0, Initial residual = 1, Final residual = 1.34198451537e-73, No Iterations 3
DILUPBiCGStab:  Solving for ILambda_5_0, Initial residual = 1, Final residual = 1.3451656885e-70, No Iterations 3
DILUPBiCGStab:  Solving for ILambda_6_0, Initial residual = 1, Final residual = 5.38545843314e-61, No Iterations 3
DILUPBiCGStab:  Solving for ILambda_7_0, Initial residual = 1, Final residual = 4.15202753102e-74, No Iterations 3
DILUPBiCGStab:  Solving for ILambda_8_0, Initial residual = 1, Final residual = 1.41118929687e-61, No Iterations 40
DILUPBiCGStab:  Solving for ILambda_9_0, Initial residual = 1, Final residual = 2.02402250477e-61, No Iterations 60
DILUPBiCGStab:  Solving for ILambda_10_0, Initial residual = 1, Final residual = 4.26173573084e-61, No Iterations 67
DILUPBiCGStab:  Solving for ILambda_11_0, Initial residual = 1, Final residual = 1.57797489712e-61, No Iterations 73
DILUPBiCGStab:  Solving for ILambda_12_0, Initial residual = 1, Final residual = 4.43851788449e-62, No Iterations 72
DILUPBiCGStab:  Solving for ILambda_13_0, Initial residual = 1, Final residual = 1.97448075819e-61, No Iterations 69
DILUPBiCGStab:  Solving for ILambda_14_0, Initial residual = 1, Final residual = 1.24398237111e-61, No Iterations 58
DILUPBiCGStab:  Solving for ILambda_15_0, Initial residual = 1, Final residual = 3.13393215784e-62, No Iterations 40
DILUPBiCGStab:  Solving for ILambda_16_0, Initial residual = 1, Final residual = 1.02028538863e-61, No Iterations 20
DILUPBiCGStab:  Solving for ILambda_17_0, Initial residual = 1, Final residual = 2.25415576661e-63, No Iterations 22
DILUPBiCGStab:  Solving for ILambda_18_0, Initial residual = 1, Final residual = 2.35701147396e-63, No Iterations 22
DILUPBiCGStab:  Solving for ILambda_19_0, Initial residual = 1, Final residual = 2.97955938938e-61, No Iterations 22
DILUPBiCGStab:  Solving for ILambda_20_0, Initial residual = 1, Final residual = 1.70388897606e-61, No Iterations 21
DILUPBiCGStab:  Solving for ILambda_21_0, Initial residual = 1, Final residual = 3.01072413698e-63, No Iterations 23
DILUPBiCGStab:  Solving for ILambda_22_0, Initial residual = 1, Final residual = 3.02735389757e-61, No Iterations 23
DILUPBiCGStab:  Solving for ILambda_23_0, Initial residual = 1, Final residual = 8.79633432258e-61, No Iterations 23
DILUPBiCGStab:  Solving for ILambda_24_0, Initial residual = 1, Final residual = 1.97248585648e-61, No Iterations 40
DILUPBiCGStab:  Solving for ILambda_25_0, Initial residual = 1, Final residual = 4.08489145018e-61, No Iterations 59
DILUPBiCGStab:  Solving for ILambda_26_0, Initial residual = 1, Final residual = 1.09159038548e-61, No Iterations 68
DILUPBiCGStab:  Solving for ILambda_27_0, Initial residual = 1, Final residual = 6.53789728016e-61, No Iterations 71
DILUPBiCGStab:  Solving for ILambda_28_0, Initial residual = 1, Final residual = 1.76129621291e-61, No Iterations 72
DILUPBiCGStab:  Solving for ILambda_29_0, Initial residual = 1, Final residual = 7.04506474512e-61, No Iterations 68
DILUPBiCGStab:  Solving for ILambda_30_0, Initial residual = 1, Final residual = 1.65638789237e-61, No Iterations 60
DILUPBiCGStab:  Solving for ILambda_31_0, Initial residual = 1, Final residual = 1.48150601035e-61, No Iterations 40
DILUPBiCGStab:  Solving for ILambda_32_0, Initial residual = 1, Final residual = 3.27431047601e-61, No Iterations 3
DILUPBiCGStab:  Solving for ILambda_33_0, Initial residual = 1, Final residual = 1.32059778149e-70, No Iterations 3
DILUPBiCGStab:  Solving for ILambda_34_0, Initial residual = 1, Final residual = 1.89432284026e-72, No Iterations 3
DILUPBiCGStab:  Solving for ILambda_35_0, Initial residual = 1, Final residual = 3.05961198267e-71, No Iterations 3
DILUPBiCGStab:  Solving for ILambda_36_0, Initial residual = 1, Final residual = 4.52629551338e-71, No Iterations 3
DILUPBiCGStab:  Solving for ILambda_37_0, Initial residual = 1, Final residual = 1.74487112558e-73, No Iterations 3
DILUPBiCGStab:  Solving for ILambda_38_0, Initial residual = 1, Final residual = 9.04598833487e-72, No Iterations 3
DILUPBiCGStab:  Solving for ILambda_39_0, Initial residual = 1, Final residual = 6.76731108907e-61, No Iterations 3
DILUPBiCGStab:  Solving for ILambda_40_0, Initial residual = 1, Final residual = 6.71303285909e-61, No Iterations 41
DILUPBiCGStab:  Solving for ILambda_41_0, Initial residual = 1, Final residual = 1.48041355368e-61, No Iterations 59
DILUPBiCGStab:  Solving for ILambda_42_0, Initial residual = 1, Final residual = 3.57133526332e-62, No Iterations 68
DILUPBiCGStab:  Solving for ILambda_43_0, Initial residual = 1, Final residual = 6.26900178202e-61, No Iterations 72
DILUPBiCGStab:  Solving for ILambda_44_0, Initial residual = 1, Final residual = 5.95002073531e-61, No Iterations 71
DILUPBiCGStab:  Solving for ILambda_45_0, Initial residual = 1, Final residual = 9.57644788881e-61, No Iterations 67
DILUPBiCGStab:  Solving for ILambda_46_0, Initial residual = 1, Final residual = 5.99758135462e-61, No Iterations 59
DILUPBiCGStab:  Solving for ILambda_47_0, Initial residual = 1, Final residual = 3.58038391221e-61, No Iterations 39
DILUPBiCGStab:  Solving for ILambda_48_0, Initial residual = 1, Final residual = 3.43821066799e-62, No Iterations 30
DILUPBiCGStab:  Solving for ILambda_49_0, Initial residual = 1, Final residual = 7.31908527861e-61, No Iterations 27
DILUPBiCGStab:  Solving for ILambda_50_0, Initial residual = 1, Final residual = 3.22259451539e-61, No Iterations 31
DILUPBiCGStab:  Solving for ILambda_51_0, Initial residual = 1, Final residual = 5.61883189295e-61, No Iterations 29
DILUPBiCGStab:  Solving for ILambda_52_0, Initial residual = 1, Final residual = 1.71316982816e-63, No Iterations 28
DILUPBiCGStab:  Solving for ILambda_53_0, Initial residual = 1, Final residual = 3.06393666585e-61, No Iterations 29
DILUPBiCGStab:  Solving for ILambda_54_0, Initial residual = 1, Final residual = 1.72209729677e-61, No Iterations 25
DILUPBiCGStab:  Solving for ILambda_55_0, Initial residual = 1, Final residual = 3.64304615989e-61, No Iterations 27
DILUPBiCGStab:  Solving for ILambda_56_0, Initial residual = 1, Final residual = 9.04408371556e-61, No Iterations 39
DILUPBiCGStab:  Solving for ILambda_57_0, Initial residual = 1, Final residual = 4.78158937118e-61, No Iterations 58
DILUPBiCGStab:  Solving for ILambda_58_0, Initial residual = 1, Final residual = 5.11626930443e-61, No Iterations 68
DILUPBiCGStab:  Solving for ILambda_59_0, Initial residual = 1, Final residual = 5.23582367032e-61, No Iterations 71
DILUPBiCGStab:  Solving for ILambda_60_0, Initial residual = 1, Final residual = 3.60296738947e-61, No Iterations 72
DILUPBiCGStab:  Solving for ILambda_61_0, Initial residual = 1, Final residual = 3.76068703209e-61, No Iterations 69
DILUPBiCGStab:  Solving for ILambda_62_0, Initial residual = 1, Final residual = 3.29957044498e-61, No Iterations 59
DILUPBiCGStab:  Solving for ILambda_63_0, Initial residual = 1, Final residual = 8.01154737887e-62, No Iterations 41
DILUPBiCGStab:  Solving for ILambda_64_0, Initial residual = 1, Final residual = 1.5159325083e-61, No Iterations 35
DILUPBiCGStab:  Solving for ILambda_65_0, Initial residual = 1, Final residual = 9.74446344196e-64, No Iterations 41
DILUPBiCGStab:  Solving for ILambda_66_0, Initial residual = 1, Final residual = 2.2151282828e-61, No Iterations 42
DILUPBiCGStab:  Solving for ILambda_67_0, Initial residual = 1, Final residual = 1.11206285376e-62, No Iterations 41
DILUPBiCGStab:  Solving for ILambda_68_0, Initial residual = 1, Final residual = 1.18020323647e-61, No Iterations 38
DILUPBiCGStab:  Solving for ILambda_69_0, Initial residual = 1, Final residual = 3.1400890356e-61, No Iterations 42
DILUPBiCGStab:  Solving for ILambda_70_0, Initial residual = 1, Final residual = 3.22435094726e-61, No Iterations 28
DILUPBiCGStab:  Solving for ILambda_71_0, Initial residual = 1, Final residual = 3.52879232483e-63, No Iterations 36
DILUPBiCGStab:  Solving for ILambda_72_0, Initial residual = 1, Final residual = 2.54898378984e-61, No Iterations 40
DILUPBiCGStab:  Solving for ILambda_73_0, Initial residual = 1, Final residual = 3.8170725994e-61, No Iterations 57
DILUPBiCGStab:  Solving for ILambda_74_0, Initial residual = 1, Final residual = 9.9129223629e-61, No Iterations 67
DILUPBiCGStab:  Solving for ILambda_75_0, Initial residual = 1, Final residual = 1.96110337102e-61, No Iterations 72
DILUPBiCGStab:  Solving for ILambda_76_0, Initial residual = 1, Final residual = 3.33768685177e-61, No Iterations 71
DILUPBiCGStab:  Solving for ILambda_77_0, Initial residual = 1, Final residual = 7.94158808744e-61, No Iterations 67
DILUPBiCGStab:  Solving for ILambda_78_0, Initial residual = 1, Final residual = 5.78810086997e-61, No Iterations 58
DILUPBiCGStab:  Solving for ILambda_79_0, Initial residual = 1, Final residual = 2.64273916685e-61, No Iterations 41
DILUPBiCGStab:  Solving for ILambda_80_0, Initial residual = 1, Final residual = 5.22663414008e-72, No Iterations 3
DILUPBiCGStab:  Solving for ILambda_81_0, Initial residual = 1, Final residual = 1.20933237568e-63, No Iterations 3
DILUPBiCGStab:  Solving for ILambda_82_0, Initial residual = 1, Final residual = 9.07060345968e-62, No Iterations 3
DILUPBiCGStab:  Solving for ILambda_83_0, Initial residual = 1, Final residual = 1.07453024892e-73, No Iterations 3
DILUPBiCGStab:  Solving for ILambda_84_0, Initial residual = 1, Final residual = 5.74775710786e-61, No Iterations 3
DILUPBiCGStab:  Solving for ILambda_85_0, Initial residual = 1, Final residual = 1.04240821893e-75, No Iterations 3
DILUPBiCGStab:  Solving for ILambda_86_0, Initial residual = 1, Final residual = 6.3180344986e-61, No Iterations 3
DILUPBiCGStab:  Solving for ILambda_87_0, Initial residual = 1, Final residual = 9.29321796316e-65, No Iterations 3
DILUPBiCGStab:  Solving for ILambda_88_0, Initial residual = 1, Final residual = 7.20661673009e-62, No Iterations 41
DILUPBiCGStab:  Solving for ILambda_89_0, Initial residual = 1, Final residual = 3.5590987396e-61, No Iterations 58
DILUPBiCGStab:  Solving for ILambda_90_0, Initial residual = 1, Final residual = 4.3994789869e-61, No Iterations 67
DILUPBiCGStab:  Solving for ILambda_91_0, Initial residual = 1, Final residual = 1.95414950322e-61, No Iterations 71
DILUPBiCGStab:  Solving for ILambda_92_0, Initial residual = 1, Final residual = 7.85422995896e-61, No Iterations 73
DILUPBiCGStab:  Solving for ILambda_93_0, Initial residual = 1, Final residual = 1.74661707305e-61, No Iterations 67
DILUPBiCGStab:  Solving for ILambda_94_0, Initial residual = 1, Final residual = 4.45179202372e-61, No Iterations 58
DILUPBiCGStab:  Solving for ILambda_95_0, Initial residual = 1, Final residual = 4.36533449063e-61, No Iterations 40
DILUPBiCGStab:  Solving for ILambda_96_0, Initial residual = 1, Final residual = 1.09344906016e-61, No Iterations 26
DILUPBiCGStab:  Solving for ILambda_97_0, Initial residual = 1, Final residual = 1.67604152323e-63, No Iterations 29
DILUPBiCGStab:  Solving for ILambda_98_0, Initial residual = 1, Final residual = 1.28921790566e-63, No Iterations 28
DILUPBiCGStab:  Solving for ILambda_99_0, Initial residual = 1, Final residual = 7.45160861511e-61, No Iterations 26
DILUPBiCGStab:  Solving for ILambda_100_0, Initial residual = 1, Final residual = 6.44434916299e-63, No Iterations 30
DILUPBiCGStab:  Solving for ILambda_101_0, Initial residual = 1, Final residual = 2.88616763417e-64, No Iterations 25
DILUPBiCGStab:  Solving for ILambda_102_0, Initial residual = 1, Final residual = 1.14662660304e-62, No Iterations 28
DILUPBiCGStab:  Solving for ILambda_103_0, Initial residual = 1, Final residual = 1.37270393652e-61, No Iterations 28
DILUPBiCGStab:  Solving for ILambda_104_0, Initial residual = 1, Final residual = 6.51186100346e-62, No Iterations 40
DILUPBiCGStab:  Solving for ILambda_105_0, Initial residual = 1, Final residual = 7.71788541161e-61, No Iterations 58
DILUPBiCGStab:  Solving for ILambda_106_0, Initial residual = 1, Final residual = 4.38911142317e-61, No Iterations 68
DILUPBiCGStab:  Solving for ILambda_107_0, Initial residual = 1, Final residual = 3.89946009295e-61, No Iterations 69
DILUPBiCGStab:  Solving for ILambda_108_0, Initial residual = 1, Final residual = 6.90213336719e-61, No Iterations 71
DILUPBiCGStab:  Solving for ILambda_109_0, Initial residual = 1, Final residual = 8.37909755972e-62, No Iterations 68
DILUPBiCGStab:  Solving for ILambda_110_0, Initial residual = 1, Final residual = 4.4465487036e-61, No Iterations 58
DILUPBiCGStab:  Solving for ILambda_111_0, Initial residual = 1, Final residual = 9.22936322515e-61, No Iterations 41
DILUPBiCGStab:  Solving for ILambda_112_0, Initial residual = 1, Final residual = 6.86650069002e-63, No Iterations 3
DILUPBiCGStab:  Solving for ILambda_113_0, Initial residual = 1, Final residual = 3.82756597659e-63, No Iterations 3
DILUPBiCGStab:  Solving for ILambda_114_0, Initial residual = 1, Final residual = 8.20408597832e-75, No Iterations 3
DILUPBiCGStab:  Solving for ILambda_115_0, Initial residual = 1, Final residual = 3.17129693141e-61, No Iterations 3
DILUPBiCGStab:  Solving for ILambda_116_0, Initial residual = 1, Final residual = 4.71821368028e-64, No Iterations 3
DILUPBiCGStab:  Solving for ILambda_117_0, Initial residual = 1, Final residual = 3.87745279198e-73, No Iterations 3
DILUPBiCGStab:  Solving for ILambda_118_0, Initial residual = 1, Final residual = 8.22621135494e-61, No Iterations 3
DILUPBiCGStab:  Solving for ILambda_119_0, Initial residual = 1, Final residual = 1.05367734372e-62, No Iterations 3
DILUPBiCGStab:  Solving for ILambda_120_0, Initial residual = 1, Final residual = 8.12207172221e-61, No Iterations 41
DILUPBiCGStab:  Solving for ILambda_121_0, Initial residual = 1, Final residual = 4.15978942565e-61, No Iterations 57
DILUPBiCGStab:  Solving for ILambda_122_0, Initial residual = 1, Final residual = 3.76811600262e-61, No Iterations 68
DILUPBiCGStab:  Solving for ILambda_123_0, Initial residual = 1, Final residual = 3.55448475677e-61, No Iterations 72
DILUPBiCGStab:  Solving for ILambda_124_0, Initial residual = 1, Final residual = 9.17504035153e-61, No Iterations 69
DILUPBiCGStab:  Solving for ILambda_125_0, Initial residual = 1, Final residual = 1.22235247279e-61, No Iterations 68
DILUPBiCGStab:  Solving for ILambda_126_0, Initial residual = 1, Final residual = 3.68672106364e-61, No Iterations 57
DILUPBiCGStab:  Solving for ILambda_127_0, Initial residual = 1, Final residual = 6.50711346196e-61, No Iterations 40
Radiation solver iter: 1
DILUPBiCGStab:  Solving for ILambda_0_0, Initial residual = 7.62023004542e-17, Final residual = 5.63176384984e-61, No Iterations 2
DILUPBiCGStab:  Solving for ILambda_1_0, Initial residual = 8.66636355074e-17, Final residual = 6.73828685069e-62, No Iterations 2
DILUPBiCGStab:  Solving for ILambda_2_0, Initial residual = 8.68402355424e-17, Final residual = 1.93703310396e-62, No Iterations 2
DILUPBiCGStab:  Solving for ILambda_3_0, Initial residual = 9.50358501759e-17, Final residual = 6.93128958019e-62, No Iterations 2
DILUPBiCGStab:  Solving for ILambda_4_0, Initial residual = 9.52416173809e-17, Final residual = 3.53379433025e-62, No Iterations 2
DILUPBiCGStab:  Solving for ILambda_5_0, Initial residual = 9.5754914894e-17, Final residual = 2.82310473274e-63, No Iterations 2
DILUPBiCGStab:  Solving for ILambda_6_0, Initial residual = 9.12861552881e-17, Final residual = 2.26737942691e-62, No Iterations 2
DILUPBiCGStab:  Solving for ILambda_7_0, Initial residual = 8.86325572489e-17, Final residual = 2.99004549606e-62, No Iterations 2
DILUPBiCGStab:  Solving for ILambda_8_0, Initial residual = 4.47682417942e-16, Final residual = 7.62539499177e-61, No Iterations 27
DILUPBiCGStab:  Solving for ILambda_9_0, Initial residual = 3.59499011311e-15, Final residual = 2.93432825287e-61, No Iterations 37
DILUPBiCGStab:  Solving for ILambda_10_0, Initial residual = 1.2003118664e-14, Final residual = 2.76250237366e-61, No Iterations 43
DILUPBiCGStab:  Solving for ILambda_11_0, Initial residual = 3.14768794675e-13, Final residual = 5.34604550382e-61, No Iterations 43
DILUPBiCGStab:  Solving for ILambda_12_0, Initial residual = 1.46749490425e-13, Final residual = 3.5032472036e-61, No Iterations 43
DILUPBiCGStab:  Solving for ILambda_13_0, Initial residual = 2.71451882635e-14, Final residual = 3.17595996235e-61, No Iterations 41
DILUPBiCGStab:  Solving for ILambda_14_0, Initial residual = 1.78371337897e-15, Final residual = 6.78106516828e-61, No Iterations 36
DILUPBiCGStab:  Solving for ILambda_15_0, Initial residual = 2.49203779895e-16, Final residual = 1.47466895008e-61, No Iterations 27
DILUPBiCGStab:  Solving for ILambda_16_0, Initial residual = 2.80053490338e-16, Final residual = 1.6558028007e-62, No Iterations 12
DILUPBiCGStab:  Solving for ILambda_17_0, Initial residual = 2.95302593824e-16, Final residual = 3.24928853574e-62, No Iterations 13
DILUPBiCGStab:  Solving for ILambda_18_0, Initial residual = 3.22200917866e-16, Final residual = 1.66572921109e-61, No Iterations 12
DILUPBiCGStab:  Solving for ILambda_19_0, Initial residual = 3.3578970909e-16, Final residual = 1.29586752961e-63, No Iterations 12
DILUPBiCGStab:  Solving for ILambda_20_0, Initial residual = 3.28857885106e-16, Final residual = 5.65675623403e-62, No Iterations 12
DILUPBiCGStab:  Solving for ILambda_21_0, Initial residual = 3.07443061742e-16, Final residual = 5.43059775398e-63, No Iterations 11
DILUPBiCGStab:  Solving for ILambda_22_0, Initial residual = 2.85128400343e-16, Final residual = 1.58694294444e-64, No Iterations 12
DILUPBiCGStab:  Solving for ILambda_23_0, Initial residual = 2.65681137724e-16, Final residual = 3.65642966173e-63, No Iterations 12
DILUPBiCGStab:  Solving for ILambda_24_0, Initial residual = 2.46620631064e-16, Final residual = 8.76876059338e-61, No Iterations 27
DILUPBiCGStab:  Solving for ILambda_25_0, Initial residual = 1.80986248058e-15, Final residual = 5.65736786065e-61, No Iterations 36
DILUPBiCGStab:  Solving for ILambda_26_0, Initial residual = 2.55363242848e-14, Final residual = 2.05346093245e-61, No Iterations 41
DILUPBiCGStab:  Solving for ILambda_27_0, Initial residual = 1.48923672918e-13, Final residual = 2.61459068555e-61, No Iterations 43
DILUPBiCGStab:  Solving for ILambda_28_0, Initial residual = 3.22396137576e-13, Final residual = 1.5755548671e-61, No Iterations 44
DILUPBiCGStab:  Solving for ILambda_29_0, Initial residual = 1.2971325375e-14, Final residual = 3.83689306985e-61, No Iterations 41
DILUPBiCGStab:  Solving for ILambda_30_0, Initial residual = 3.76001307394e-15, Final residual = 6.72766958089e-62, No Iterations 38
DILUPBiCGStab:  Solving for ILambda_31_0, Initial residual = 4.46526163015e-16, Final residual = 2.60824359894e-61, No Iterations 27
DILUPBiCGStab:  Solving for ILambda_32_0, Initial residual = 4.29178048347e-16, Final residual = 2.71974598604e-61, No Iterations 2
DILUPBiCGStab:  Solving for ILambda_33_0, Initial residual = 4.28865673549e-16, Final residual = 1.57586238155e-61, No Iterations 2
DILUPBiCGStab:  Solving for ILambda_34_0, Initial residual = 3.59865821455e-16, Final residual = 3.33955620864e-61, No Iterations 2
DILUPBiCGStab:  Solving for ILambda_35_0, Initial residual = 3.49259518934e-16, Final residual = 6.15846863997e-61, No Iterations 2
DILUPBiCGStab:  Solving for ILambda_36_0, Initial residual = 3.47408960149e-16, Final residual = 2.00630581187e-62, No Iterations 2
DILUPBiCGStab:  Solving for ILambda_37_0, Initial residual = 3.78434149962e-16, Final residual = 7.9950113724e-61, No Iterations 2
DILUPBiCGStab:  Solving for ILambda_38_0, Initial residual = 5.31873413629e-16, Final residual = 1.02166403966e-61, No Iterations 2
DILUPBiCGStab:  Solving for ILambda_39_0, Initial residual = 5.1526684071e-16, Final residual = 7.38481726203e-62, No Iterations 2
DILUPBiCGStab:  Solving for ILambda_40_0, Initial residual = 2.07954761955e-15, Final residual = 9.61436199801e-62, No Iterations 28
DILUPBiCGStab:  Solving for ILambda_41_0, Initial residual = 6.17143267696e-15, Final residual = 3.15344791556e-61, No Iterations 37
DILUPBiCGStab:  Solving for ILambda_42_0, Initial residual = 7.08881824561e-14, Final residual = 3.2066065262e-62, No Iterations 44
DILUPBiCGStab:  Solving for ILambda_43_0, Initial residual = 1.93688750482e-13, Final residual = 1.221835896e-61, No Iterations 48
DILUPBiCGStab:  Solving for ILambda_44_0, Initial residual = 5.14094033429e-13, Final residual = 1.88925831528e-61, No Iterations 45
DILUPBiCGStab:  Solving for ILambda_45_0, Initial residual = 4.9973932337e-13, Final residual = 3.32951934114e-61, No Iterations 43
DILUPBiCGStab:  Solving for ILambda_46_0, Initial residual = 6.49574457449e-15, Final residual = 7.41793902355e-61, No Iterations 38
DILUPBiCGStab:  Solving for ILambda_47_0, Initial residual = 1.17970158554e-15, Final residual = 4.87995680047e-62, No Iterations 29
DILUPBiCGStab:  Solving for ILambda_48_0, Initial residual = 2.86923565872e-15, Final residual = 3.80726234986e-61, No Iterations 15
DILUPBiCGStab:  Solving for ILambda_49_0, Initial residual = 3.4534056689e-15, Final residual = 2.19731579066e-61, No Iterations 14
DILUPBiCGStab:  Solving for ILambda_50_0, Initial residual = 3.95813235224e-15, Final residual = 8.32947598918e-62, No Iterations 14
DILUPBiCGStab:  Solving for ILambda_51_0, Initial residual = 4.31180230808e-15, Final residual = 5.63577679313e-61, No Iterations 14
DILUPBiCGStab:  Solving for ILambda_52_0, Initial residual = 4.32039988068e-15, Final residual = 5.10027779366e-61, No Iterations 19
DILUPBiCGStab:  Solving for ILambda_53_0, Initial residual = 3.88350449375e-15, Final residual = 3.91366465239e-61, No Iterations 15
DILUPBiCGStab:  Solving for ILambda_54_0, Initial residual = 3.18097062774e-15, Final residual = 2.85942032954e-61, No Iterations 15
DILUPBiCGStab:  Solving for ILambda_55_0, Initial residual = 2.66877764679e-15, Final residual = 9.05895047796e-64, No Iterations 14
DILUPBiCGStab:  Solving for ILambda_56_0, Initial residual = 1.19741110344e-15, Final residual = 1.83573275125e-61, No Iterations 28
DILUPBiCGStab:  Solving for ILambda_57_0, Initial residual = 6.42023656694e-15, Final residual = 1.91249645279e-61, No Iterations 36
DILUPBiCGStab:  Solving for ILambda_58_0, Initial residual = 5.10767784977e-13, Final residual = 2.68881750956e-61, No Iterations 44
DILUPBiCGStab:  Solving for ILambda_59_0, Initial residual = 5.12043417336e-13, Final residual = 7.45104933723e-61, No Iterations 47
DILUPBiCGStab:  Solving for ILambda_60_0, Initial residual = 2.01526361519e-13, Final residual = 9.09574957841e-61, No Iterations 46
DILUPBiCGStab:  Solving for ILambda_61_0, Initial residual = 7.12256104758e-14, Final residual = 2.74241964719e-61, No Iterations 41
DILUPBiCGStab:  Solving for ILambda_62_0, Initial residual = 5.95632789587e-15, Final residual = 9.89001459499e-62, No Iterations 39
DILUPBiCGStab:  Solving for ILambda_63_0, Initial residual = 2.11633947085e-15, Final residual = 2.14123847726e-61, No Iterations 28
DILUPBiCGStab:  Solving for ILambda_64_0, Initial residual = 6.29154840796e-16, Final residual = 2.28111189512e-61, No Iterations 14
DILUPBiCGStab:  Solving for ILambda_65_0, Initial residual = 7.30931652991e-16, Final residual = 7.96927212355e-61, No Iterations 13
DILUPBiCGStab:  Solving for ILambda_66_0, Initial residual = 8.60836426153e-16, Final residual = 1.12803649949e-61, No Iterations 13
DILUPBiCGStab:  Solving for ILambda_67_0, Initial residual = 8.46085804229e-16, Final residual = 5.17408201913e-64, No Iterations 14
DILUPBiCGStab:  Solving for ILambda_68_0, Initial residual = 8.04144696273e-16, Final residual = 2.29697861622e-64, No Iterations 14
DILUPBiCGStab:  Solving for ILambda_69_0, Initial residual = 8.15265683528e-16, Final residual = 1.68731442762e-62, No Iterations 12
DILUPBiCGStab:  Solving for ILambda_70_0, Initial residual = 6.73432592078e-16, Final residual = 1.45443987255e-61, No Iterations 12
DILUPBiCGStab:  Solving for ILambda_71_0, Initial residual = 7.18092999387e-16, Final residual = 2.97808549007e-62, No Iterations 13
DILUPBiCGStab:  Solving for ILambda_72_0, Initial residual = 1.8659529102e-15, Final residual = 2.09932673614e-61, No Iterations 28
DILUPBiCGStab:  Solving for ILambda_73_0, Initial residual = 4.11372017934e-15, Final residual = 2.44313577953e-61, No Iterations 38
DILUPBiCGStab:  Solving for ILambda_74_0, Initial residual = 1.98377722701e-13, Final residual = 6.63824850166e-61, No Iterations 41
DILUPBiCGStab:  Solving for ILambda_75_0, Initial residual = 1.46885703165e-13, Final residual = 6.18285910918e-61, No Iterations 43
DILUPBiCGStab:  Solving for ILambda_76_0, Initial residual = 1.58200437496e-13, Final residual = 6.38648062724e-61, No Iterations 43
DILUPBiCGStab:  Solving for ILambda_77_0, Initial residual = 5.75952976474e-14, Final residual = 2.25382870272e-61, No Iterations 41
DILUPBiCGStab:  Solving for ILambda_78_0, Initial residual = 5.06104316031e-15, Final residual = 5.94072298321e-61, No Iterations 41
DILUPBiCGStab:  Solving for ILambda_79_0, Initial residual = 8.58093148676e-16, Final residual = 8.65484784919e-61, No Iterations 28
DILUPBiCGStab:  Solving for ILambda_80_0, Initial residual = 4.84296439342e-16, Final residual = 7.82379775104e-62, No Iterations 2
DILUPBiCGStab:  Solving for ILambda_81_0, Initial residual = 4.50549459209e-16, Final residual = 3.09754521313e-61, No Iterations 2
DILUPBiCGStab:  Solving for ILambda_82_0, Initial residual = 3.59798215071e-16, Final residual = 5.6009456276e-62, No Iterations 2
DILUPBiCGStab:  Solving for ILambda_83_0, Initial residual = 3.46236613589e-16, Final residual = 1.23203854097e-61, No Iterations 2
DILUPBiCGStab:  Solving for ILambda_84_0, Initial residual = 3.62481141278e-16, Final residual = 1.51399091053e-61, No Iterations 2
DILUPBiCGStab:  Solving for ILambda_85_0, Initial residual = 3.68000841497e-16, Final residual = 3.36457459492e-61, No Iterations 2
DILUPBiCGStab:  Solving for ILambda_86_0, Initial residual = 4.31668920557e-16, Final residual = 3.24028935462e-75, No Iterations 2
DILUPBiCGStab:  Solving for ILambda_87_0, Initial residual = 4.02237918117e-16, Final residual = 3.18939809584e-62, No Iterations 2
DILUPBiCGStab:  Solving for ILambda_88_0, Initial residual = 8.62365550547e-16, Final residual = 1.10437045395e-61, No Iterations 29
DILUPBiCGStab:  Solving for ILambda_89_0, Initial residual = 5.10959051312e-15, Final residual = 9.18292623493e-61, No Iterations 40
DILUPBiCGStab:  Solving for ILambda_90_0, Initial residual = 5.64363739923e-14, Final residual = 9.7631093114e-61, No Iterations 43
DILUPBiCGStab:  Solving for ILambda_91_0, Initial residual = 1.51321717056e-13, Final residual = 5.40941618432e-61, No Iterations 44
DILUPBiCGStab:  Solving for ILambda_92_0, Initial residual = 1.45707617756e-13, Final residual = 3.83026131698e-61, No Iterations 45
DILUPBiCGStab:  Solving for ILambda_93_0, Initial residual = 1.93876015928e-13, Final residual = 6.32904646894e-61, No Iterations 43
DILUPBiCGStab:  Solving for ILambda_94_0, Initial residual = 4.15649544062e-15, Final residual = 2.25578112644e-61, No Iterations 39
DILUPBiCGStab:  Solving for ILambda_95_0, Initial residual = 1.83214210991e-15, Final residual = 1.17779118955e-61, No Iterations 29
DILUPBiCGStab:  Solving for ILambda_96_0, Initial residual = 1.27942359639e-16, Final residual = 8.40610806162e-61, No Iterations 10
DILUPBiCGStab:  Solving for ILambda_97_0, Initial residual = 1.40591044234e-16, Final residual = 2.16954214198e-63, No Iterations 12
DILUPBiCGStab:  Solving for ILambda_98_0, Initial residual = 1.42515436465e-16, Final residual = 6.63280601652e-63, No Iterations 14
DILUPBiCGStab:  Solving for ILambda_99_0, Initial residual = 1.49230899705e-16, Final residual = 2.26595479502e-62, No Iterations 12
DILUPBiCGStab:  Solving for ILambda_100_0, Initial residual = 1.51577093577e-16, Final residual = 5.0551138652e-61, No Iterations 13
DILUPBiCGStab:  Solving for ILambda_101_0, Initial residual = 1.50626752911e-16, Final residual = 4.60379665431e-62, No Iterations 11
DILUPBiCGStab:  Solving for ILambda_102_0, Initial residual = 1.50345588775e-16, Final residual = 2.70089307689e-64, No Iterations 12
DILUPBiCGStab:  Solving for ILambda_103_0, Initial residual = 1.35703829712e-16, Final residual = 3.91613999155e-62, No Iterations 11
DILUPBiCGStab:  Solving for ILambda_104_0, Initial residual = 3.91818770331e-16, Final residual = 5.79029244122e-61, No Iterations 28
DILUPBiCGStab:  Solving for ILambda_105_0, Initial residual = 1.12259107642e-15, Final residual = 1.93721109168e-61, No Iterations 39
DILUPBiCGStab:  Solving for ILambda_106_0, Initial residual = 3.96653686251e-13, Final residual = 2.72149580807e-61, No Iterations 40
DILUPBiCGStab:  Solving for ILambda_107_0, Initial residual = 3.97641956406e-13, Final residual = 1.12238183874e-61, No Iterations 42
DILUPBiCGStab:  Solving for ILambda_108_0, Initial residual = 4.2363756541e-13, Final residual = 5.64024368515e-61, No Iterations 43
DILUPBiCGStab:  Solving for ILambda_109_0, Initial residual = 2.33764881009e-14, Final residual = 1.42008639296e-61, No Iterations 42
DILUPBiCGStab:  Solving for ILambda_110_0, Initial residual = 9.78644585051e-16, Final residual = 3.83921820164e-61, No Iterations 37
DILUPBiCGStab:  Solving for ILambda_111_0, Initial residual = 1.88675319343e-16, Final residual = 4.21040463525e-61, No Iterations 28
DILUPBiCGStab:  Solving for ILambda_112_0, Initial residual = 8.60556036122e-17, Final residual = 4.79261755261e-61, No Iterations 2
DILUPBiCGStab:  Solving for ILambda_113_0, Initial residual = 9.15969831932e-17, Final residual = 6.41349639543e-62, No Iterations 2
DILUPBiCGStab:  Solving for ILambda_114_0, Initial residual = 9.38082700241e-17, Final residual = 5.21965941294e-62, No Iterations 2
DILUPBiCGStab:  Solving for ILambda_115_0, Initial residual = 8.95486011122e-17, Final residual = 3.14740784345e-62, No Iterations 2
DILUPBiCGStab:  Solving for ILambda_116_0, Initial residual = 9.19744398886e-17, Final residual = 1.96346211273e-61, No Iterations 2
DILUPBiCGStab:  Solving for ILambda_117_0, Initial residual = 8.6817819915e-17, Final residual = 1.94102929626e-61, No Iterations 2
DILUPBiCGStab:  Solving for ILambda_118_0, Initial residual = 8.65175065443e-17, Final residual = 2.15197313966e-61, No Iterations 2
DILUPBiCGStab:  Solving for ILambda_119_0, Initial residual = 8.40043723994e-17, Final residual = 3.20079747701e-61, No Iterations 2
DILUPBiCGStab:  Solving for ILambda_120_0, Initial residual = 1.93282113962e-16, Final residual = 5.67574756803e-62, No Iterations 28
DILUPBiCGStab:  Solving for ILambda_121_0, Initial residual = 9.89871724129e-16, Final residual = 2.46822218491e-61, No Iterations 38
DILUPBiCGStab:  Solving for ILambda_122_0, Initial residual = 2.24901069615e-14, Final residual = 1.32109355633e-62, No Iterations 42
DILUPBiCGStab:  Solving for ILambda_123_0, Initial residual = 4.31317537393e-13, Final residual = 6.10578587103e-61, No Iterations 43
DILUPBiCGStab:  Solving for ILambda_124_0, Initial residual = 4.06042055426e-13, Final residual = 1.02686681048e-61, No Iterations 44
DILUPBiCGStab:  Solving for ILambda_125_0, Initial residual = 3.7322005883e-13, Final residual = 7.43463422503e-61, No Iterations 40
DILUPBiCGStab:  Solving for ILambda_126_0, Initial residual = 1.03191778789e-15, Final residual = 4.60701926331e-61, No Iterations 39
DILUPBiCGStab:  Solving for ILambda_127_0, Initial residual = 3.9511362354e-16, Final residual = 1.60325429503e-61, No Iterations 29
min/max(T) = 1000, 1000
PIMPLE: iteration 2
Radiation solver iter: 0
DILUPBiCGStab:  Solving for ILambda_0_0, Initial residual = 8.11768687683e-17, Final residual = 2.29899486459e-61, No Iterations 2
DILUPBiCGStab:  Solving for ILambda_1_0, Initial residual = 8.30360715471e-17, Final residual = 1.46935423064e-61, No Iterations 2
DILUPBiCGStab:  Solving for ILambda_2_0, Initial residual = 8.23926899025e-17, Final residual = 8.46533948053e-63, No Iterations 2
DILUPBiCGStab:  Solving for ILambda_3_0, Initial residual = 8.89205884482e-17, Final residual = 4.87476338185e-62, No Iterations 2
DILUPBiCGStab:  Solving for ILambda_4_0, Initial residual = 9.42533862154e-17, Final residual = 4.66787094902e-62, No Iterations 2
DILUPBiCGStab:  Solving for ILambda_5_0, Initial residual = 8.6572122706e-17, Final residual = 4.91461512327e-63, No Iterations 2
DILUPBiCGStab:  Solving for ILambda_6_0, Initial residual = 9.27547717304e-17, Final residual = 2.23455850906e-62, No Iterations 2
DILUPBiCGStab:  Solving for ILambda_7_0, Initial residual = 8.66114515475e-17, Final residual = 4.63945349276e-62, No Iterations 2
DILUPBiCGStab:  Solving for ILambda_8_0, Initial residual = 1.02307629401e-16, Final residual = 2.73371673757e-61, No Iterations 28
DILUPBiCGStab:  Solving for ILambda_9_0, Initial residual = 1.20747738012e-16, Final residual = 1.2415570747e-61, No Iterations 39
DILUPBiCGStab:  Solving for ILambda_10_0, Initial residual = 1.39478494919e-16, Final residual = 8.1087045359e-61, No Iterations 41
DILUPBiCGStab:  Solving for ILambda_11_0, Initial residual = 1.49510792472e-16, Final residual = 3.00816662107e-61, No Iterations 45
DILUPBiCGStab:  Solving for ILambda_12_0, Initial residual = 1.50102891071e-16, Final residual = 8.45347741239e-61, No Iterations 47
DILUPBiCGStab:  Solving for ILambda_13_0, Initial residual = 1.44199051657e-16, Final residual = 2.46446401079e-61, No Iterations 44
DILUPBiCGStab:  Solving for ILambda_14_0, Initial residual = 1.26211515181e-16, Final residual = 8.27134343541e-63, No Iterations 38
DILUPBiCGStab:  Solving for ILambda_15_0, Initial residual = 1.04843067638e-16, Final residual = 8.24107367786e-61, No Iterations 27
DILUPBiCGStab:  Solving for ILambda_16_0, Initial residual = 8.81968395749e-17, Final residual = 1.45906150176e-61, No Iterations 12
DILUPBiCGStab:  Solving for ILambda_17_0, Initial residual = 9.3106318686e-17, Final residual = 1.46634824169e-61, No Iterations 12
DILUPBiCGStab:  Solving for ILambda_18_0, Initial residual = 9.86165221327e-17, Final residual = 9.06505536977e-63, No Iterations 11
DILUPBiCGStab:  Solving for ILambda_19_0, Initial residual = 9.29794777121e-17, Final residual = 2.1481705445e-62, No Iterations 13
DILUPBiCGStab:  Solving for ILambda_20_0, Initial residual = 9.29790883343e-17, Final residual = 7.52359679502e-64, No Iterations 12
DILUPBiCGStab:  Solving for ILambda_21_0, Initial residual = 8.78470854841e-17, Final residual = 3.06395334924e-65, No Iterations 12
DILUPBiCGStab:  Solving for ILambda_22_0, Initial residual = 8.55608830496e-17, Final residual = 1.9132849048e-61, No Iterations 11
DILUPBiCGStab:  Solving for ILambda_23_0, Initial residual = 8.2372525564e-17, Final residual = 1.07681755772e-61, No Iterations 11
DILUPBiCGStab:  Solving for ILambda_24_0, Initial residual = 1.0596087671e-16, Final residual = 9.64871275618e-61, No Iterations 28
DILUPBiCGStab:  Solving for ILambda_25_0, Initial residual = 1.24910898266e-16, Final residual = 4.54844660336e-61, No Iterations 38
DILUPBiCGStab:  Solving for ILambda_26_0, Initial residual = 1.46473786527e-16, Final residual = 7.42981419106e-61, No Iterations 43
DILUPBiCGStab:  Solving for ILambda_27_0, Initial residual = 1.47890137682e-16, Final residual = 6.63887025098e-61, No Iterations 46
DILUPBiCGStab:  Solving for ILambda_28_0, Initial residual = 1.50885467563e-16, Final residual = 9.31734558984e-61, No Iterations 47
DILUPBiCGStab:  Solving for ILambda_29_0, Initial residual = 1.34488187832e-16, Final residual = 3.24521106352e-61, No Iterations 42
DILUPBiCGStab:  Solving for ILambda_30_0, Initial residual = 1.24571404104e-16, Final residual = 4.53959334687e-61, No Iterations 39
DILUPBiCGStab:  Solving for ILambda_31_0, Initial residual = 1.00816810112e-16, Final residual = 9.17070259858e-61, No Iterations 28
DILUPBiCGStab:  Solving for ILambda_32_0, Initial residual = 4.05576670464e-16, Final residual = 8.13806168567e-62, No Iterations 2
DILUPBiCGStab:  Solving for ILambda_33_0, Initial residual = 4.19997643545e-16, Final residual = 7.34300305138e-61, No Iterations 2
DILUPBiCGStab:  Solving for ILambda_34_0, Initial residual = 3.65297060828e-16, Final residual = 6.84396153515e-62, No Iterations 2
DILUPBiCGStab:  Solving for ILambda_35_0, Initial residual = 3.43836194591e-16, Final residual = 5.20326948834e-62, No Iterations 2
DILUPBiCGStab:  Solving for ILambda_36_0, Initial residual = 3.30194211937e-16, Final residual = 1.76887126398e-62, No Iterations 2
DILUPBiCGStab:  Solving for ILambda_37_0, Initial residual = 3.74292585749e-16, Final residual = 1.33123686342e-75, No Iterations 2
DILUPBiCGStab:  Solving for ILambda_38_0, Initial residual = 5.26460470709e-16, Final residual = 3.31279007693e-62, No Iterations 2
DILUPBiCGStab:  Solving for ILambda_39_0, Initial residual = 5.11682447587e-16, Final residual = 3.46981145885e-62, No Iterations 2
DILUPBiCGStab:  Solving for ILambda_40_0, Initial residual = 5.43747233604e-16, Final residual = 1.60092122672e-61, No Iterations 30
DILUPBiCGStab:  Solving for ILambda_41_0, Initial residual = 5.750868417e-16, Final residual = 3.70670986418e-61, No Iterations 40
DILUPBiCGStab:  Solving for ILambda_42_0, Initial residual = 6.54160286001e-16, Final residual = 4.65341098102e-61, No Iterations 45
DILUPBiCGStab:  Solving for ILambda_43_0, Initial residual = 7.01377802946e-16, Final residual = 5.41362294321e-61, No Iterations 48
DILUPBiCGStab:  Solving for ILambda_44_0, Initial residual = 7.11115210869e-16, Final residual = 8.26460321065e-61, No Iterations 48
DILUPBiCGStab:  Solving for ILambda_45_0, Initial residual = 6.65999761709e-16, Final residual = 1.97268450548e-61, No Iterations 43
DILUPBiCGStab:  Solving for ILambda_46_0, Initial residual = 6.36938150561e-16, Final residual = 8.89274848759e-61, No Iterations 38
DILUPBiCGStab:  Solving for ILambda_47_0, Initial residual = 6.2301929921e-16, Final residual = 7.67605185439e-61, No Iterations 27
DILUPBiCGStab:  Solving for ILambda_48_0, Initial residual = 5.21142704657e-16, Final residual = 5.9168092939e-62, No Iterations 13
DILUPBiCGStab:  Solving for ILambda_49_0, Initial residual = 5.37550157673e-16, Final residual = 2.37436045524e-61, No Iterations 13
DILUPBiCGStab:  Solving for ILambda_50_0, Initial residual = 3.66428937966e-16, Final residual = 7.23733315755e-63, No Iterations 13
DILUPBiCGStab:  Solving for ILambda_51_0, Initial residual = 3.47774891853e-16, Final residual = 1.81373949023e-61, No Iterations 13
DILUPBiCGStab:  Solving for ILambda_52_0, Initial residual = 3.74753119387e-16, Final residual = 3.39177357794e-61, No Iterations 13
DILUPBiCGStab:  Solving for ILambda_53_0, Initial residual = 3.57550207867e-16, Final residual = 1.35922050007e-62, No Iterations 12
DILUPBiCGStab:  Solving for ILambda_54_0, Initial residual = 4.14881713412e-16, Final residual = 1.20665174499e-64, No Iterations 15
DILUPBiCGStab:  Solving for ILambda_55_0, Initial residual = 4.11078998381e-16, Final residual = 5.62496707407e-61, No Iterations 13
DILUPBiCGStab:  Solving for ILambda_56_0, Initial residual = 5.74326736603e-16, Final residual = 6.02908045182e-61, No Iterations 28
DILUPBiCGStab:  Solving for ILambda_57_0, Initial residual = 6.69672040741e-16, Final residual = 1.53878267996e-61, No Iterations 39
DILUPBiCGStab:  Solving for ILambda_58_0, Initial residual = 6.42605716841e-16, Final residual = 4.22870900382e-61, No Iterations 44
DILUPBiCGStab:  Solving for ILambda_59_0, Initial residual = 6.78577157592e-16, Final residual = 1.6778237601e-61, No Iterations 47
DILUPBiCGStab:  Solving for ILambda_60_0, Initial residual = 6.76218916241e-16, Final residual = 5.33228236773e-61, No Iterations 47
DILUPBiCGStab:  Solving for ILambda_61_0, Initial residual = 6.32427317881e-16, Final residual = 4.4576570762e-61, No Iterations 45
DILUPBiCGStab:  Solving for ILambda_62_0, Initial residual = 5.8125468075e-16, Final residual = 1.0293037575e-61, No Iterations 39
DILUPBiCGStab:  Solving for ILambda_63_0, Initial residual = 5.05148403308e-16, Final residual = 3.61732752542e-61, No Iterations 28
DILUPBiCGStab:  Solving for ILambda_64_0, Initial residual = 4.04642402845e-16, Final residual = 1.36545766382e-61, No Iterations 13
DILUPBiCGStab:  Solving for ILambda_65_0, Initial residual = 4.1991493872e-16, Final residual = 1.66039878573e-61, No Iterations 13
DILUPBiCGStab:  Solving for ILambda_66_0, Initial residual = 3.67668011907e-16, Final residual = 7.19663208126e-62, No Iterations 14
DILUPBiCGStab:  Solving for ILambda_67_0, Initial residual = 3.63961595741e-16, Final residual = 5.58098632625e-62, No Iterations 12
DILUPBiCGStab:  Solving for ILambda_68_0, Initial residual = 3.53301812661e-16, Final residual = 7.61480756253e-62, No Iterations 12
DILUPBiCGStab:  Solving for ILambda_69_0, Initial residual = 3.66378675336e-16, Final residual = 1.92529410196e-63, No Iterations 13
DILUPBiCGStab:  Solving for ILambda_70_0, Initial residual = 4.51371881396e-16, Final residual = 7.37539506663e-64, No Iterations 12
DILUPBiCGStab:  Solving for ILambda_71_0, Initial residual = 4.09337938144e-16, Final residual = 1.59903776561e-63, No Iterations 12
DILUPBiCGStab:  Solving for ILambda_72_0, Initial residual = 4.90884590901e-16, Final residual = 3.83137146865e-61, No Iterations 28
DILUPBiCGStab:  Solving for ILambda_73_0, Initial residual = 5.52258268679e-16, Final residual = 4.65678601868e-61, No Iterations 39
DILUPBiCGStab:  Solving for ILambda_74_0, Initial residual = 5.8699860695e-16, Final residual = 9.27683645846e-61, No Iterations 46
DILUPBiCGStab:  Solving for ILambda_75_0, Initial residual = 6.36814737308e-16, Final residual = 5.30957955106e-61, No Iterations 49
DILUPBiCGStab:  Solving for ILambda_76_0, Initial residual = 6.05155350591e-16, Final residual = 2.98070284347e-61, No Iterations 47
DILUPBiCGStab:  Solving for ILambda_77_0, Initial residual = 6.28134791833e-16, Final residual = 4.68897081737e-61, No Iterations 45
DILUPBiCGStab:  Solving for ILambda_78_0, Initial residual = 6.42221565035e-16, Final residual = 4.21532912293e-61, No Iterations 38
DILUPBiCGStab:  Solving for ILambda_79_0, Initial residual = 4.69832730275e-16, Final residual = 2.3270635242e-61, No Iterations 29
DILUPBiCGStab:  Solving for ILambda_80_0, Initial residual = 4.22419110867e-16, Final residual = 6.95920897256e-62, No Iterations 2
DILUPBiCGStab:  Solving for ILambda_81_0, Initial residual = 4.62181126548e-16, Final residual = 9.61309077861e-62, No Iterations 2
DILUPBiCGStab:  Solving for ILambda_82_0, Initial residual = 3.65366275845e-16, Final residual = 1.68851886857e-61, No Iterations 2
DILUPBiCGStab:  Solving for ILambda_83_0, Initial residual = 3.36666061956e-16, Final residual = 3.48894861477e-62, No Iterations 2
DILUPBiCGStab:  Solving for ILambda_84_0, Initial residual = 3.72068970275e-16, Final residual = 1.18447438935e-61, No Iterations 2
DILUPBiCGStab:  Solving for ILambda_85_0, Initial residual = 3.56256747806e-16, Final residual = 2.60582729352e-75, No Iterations 2
DILUPBiCGStab:  Solving for ILambda_86_0, Initial residual = 4.14165009526e-16, Final residual = 1.92826632944e-74, No Iterations 2
DILUPBiCGStab:  Solving for ILambda_87_0, Initial residual = 3.92498936749e-16, Final residual = 4.3363654586e-62, No Iterations 2
DILUPBiCGStab:  Solving for ILambda_88_0, Initial residual = 4.33669867563e-16, Final residual = 1.82055157739e-61, No Iterations 27
DILUPBiCGStab:  Solving for ILambda_89_0, Initial residual = 6.07236214037e-16, Final residual = 4.47966721429e-61, No Iterations 40
DILUPBiCGStab:  Solving for ILambda_90_0, Initial residual = 6.31135065453e-16, Final residual = 6.64576342339e-61, No Iterations 44
DILUPBiCGStab:  Solving for ILambda_91_0, Initial residual = 6.27809221338e-16, Final residual = 2.16629841165e-61, No Iterations 49
DILUPBiCGStab:  Solving for ILambda_92_0, Initial residual = 6.48597779428e-16, Final residual = 6.84865513516e-61, No Iterations 47
DILUPBiCGStab:  Solving for ILambda_93_0, Initial residual = 6.2369473301e-16, Final residual = 2.3573394286e-61, No Iterations 44
DILUPBiCGStab:  Solving for ILambda_94_0, Initial residual = 6.04408672896e-16, Final residual = 1.71435666868e-61, No Iterations 39
DILUPBiCGStab:  Solving for ILambda_95_0, Initial residual = 4.5687304018e-16, Final residual = 4.75330368758e-61, No Iterations 28
DILUPBiCGStab:  Solving for ILambda_96_0, Initial residual = 8.26304777245e-17, Final residual = 3.53169938706e-62, No Iterations 11
DILUPBiCGStab:  Solving for ILambda_97_0, Initial residual = 8.39377183814e-17, Final residual = 1.03434064409e-61, No Iterations 10
DILUPBiCGStab:  Solving for ILambda_98_0, Initial residual = 8.1962911488e-17, Final residual = 1.48882272041e-62, No Iterations 11
DILUPBiCGStab:  Solving for ILambda_99_0, Initial residual = 8.97807560656e-17, Final residual = 1.14160431609e-61, No Iterations 11
DILUPBiCGStab:  Solving for ILambda_100_0, Initial residual = 8.78813613739e-17, Final residual = 6.3668671131e-64, No Iterations 11
DILUPBiCGStab:  Solving for ILambda_101_0, Initial residual = 9.16806646164e-17, Final residual = 3.15560170854e-65, No Iterations 11
DILUPBiCGStab:  Solving for ILambda_102_0, Initial residual = 9.29940085175e-17, Final residual = 3.01787729064e-61, No Iterations 11
DILUPBiCGStab:  Solving for ILambda_103_0, Initial residual = 8.60131205764e-17, Final residual = 3.97504680426e-62, No Iterations 10
DILUPBiCGStab:  Solving for ILambda_104_0, Initial residual = 9.61783155415e-17, Final residual = 9.52969658376e-62, No Iterations 29
DILUPBiCGStab:  Solving for ILambda_105_0, Initial residual = 1.13322174378e-16, Final residual = 1.84828627373e-61, No Iterations 41
DILUPBiCGStab:  Solving for ILambda_106_0, Initial residual = 1.38267764911e-16, Final residual = 4.15319397506e-61, No Iterations 41
DILUPBiCGStab:  Solving for ILambda_107_0, Initial residual = 1.48468839751e-16, Final residual = 3.47693819725e-61, No Iterations 48
DILUPBiCGStab:  Solving for ILambda_108_0, Initial residual = 1.45034177255e-16, Final residual = 3.76522682173e-61, No Iterations 49
DILUPBiCGStab:  Solving for ILambda_109_0, Initial residual = 1.42700728294e-16, Final residual = 1.00179180841e-61, No Iterations 44
DILUPBiCGStab:  Solving for ILambda_110_0, Initial residual = 1.275803257e-16, Final residual = 5.91504405823e-61, No Iterations 40
DILUPBiCGStab:  Solving for ILambda_111_0, Initial residual = 1.11790270229e-16, Final residual = 2.05662915131e-61, No Iterations 28
DILUPBiCGStab:  Solving for ILambda_112_0, Initial residual = 8.75523359371e-17, Final residual = 1.69974979809e-75, No Iterations 2
DILUPBiCGStab:  Solving for ILambda_113_0, Initial residual = 9.43099177314e-17, Final residual = 4.08485391389e-61, No Iterations 2
DILUPBiCGStab:  Solving for ILambda_114_0, Initial residual = 9.12494375699e-17, Final residual = 7.81030247686e-62, No Iterations 2
DILUPBiCGStab:  Solving for ILambda_115_0, Initial residual = 8.69132822639e-17, Final residual = 3.31934026253e-62, No Iterations 2
DILUPBiCGStab:  Solving for ILambda_116_0, Initial residual = 9.0323543405e-17, Final residual = 1.7881953369e-62, No Iterations 2
DILUPBiCGStab:  Solving for ILambda_117_0, Initial residual = 8.09206855723e-17, Final residual = 4.04255294416e-62, No Iterations 2
DILUPBiCGStab:  Solving for ILambda_118_0, Initial residual = 8.7284593226e-17, Final residual = 1.60332160397e-61, No Iterations 2
DILUPBiCGStab:  Solving for ILambda_119_0, Initial residual = 8.14545749762e-17, Final residual = 1.52054465269e-61, No Iterations 2
DILUPBiCGStab:  Solving for ILambda_120_0, Initial residual = 9.24276022296e-17, Final residual = 5.98889039303e-61, No Iterations 29
DILUPBiCGStab:  Solving for ILambda_121_0, Initial residual = 1.21709403172e-16, Final residual = 5.37959437622e-61, No Iterations 36
DILUPBiCGStab:  Solving for ILambda_122_0, Initial residual = 1.36471609175e-16, Final residual = 7.33098848924e-61, No Iterations 43
DILUPBiCGStab:  Solving for ILambda_123_0, Initial residual = 1.52257791779e-16, Final residual = 7.77833571646e-61, No Iterations 43
DILUPBiCGStab:  Solving for ILambda_124_0, Initial residual = 1.44022156851e-16, Final residual = 9.57727880189e-61, No Iterations 44
DILUPBiCGStab:  Solving for ILambda_125_0, Initial residual = 1.38598565951e-16, Final residual = 5.27603184685e-61, No Iterations 46
DILUPBiCGStab:  Solving for ILambda_126_0, Initial residual = 1.30414987846e-16, Final residual = 8.85152869104e-61, No Iterations 35
DILUPBiCGStab:  Solving for ILambda_127_0, Initial residual = 9.47121263221e-17, Final residual = 1.41103938287e-61, No Iterations 28
min/max(T) = 1000, 1000
PIMPLE: iteration 3
Radiation solver iter: 0
DILUPBiCGStab:  Solving for ILambda_0_0, Initial residual = 8.01706999889e-17, Final residual = 2.24636972866e-61, No Iterations 2
DILUPBiCGStab:  Solving for ILambda_1_0, Initial residual = 8.42354000482e-17, Final residual = 8.30155913713e-63, No Iterations 2
DILUPBiCGStab:  Solving for ILambda_2_0, Initial residual = 8.11300355202e-17, Final residual = 5.12117201286e-62, No Iterations 2
DILUPBiCGStab:  Solving for ILambda_3_0, Initial residual = 9.38283706282e-17, Final residual = 9.30258696429e-62, No Iterations 2
DILUPBiCGStab:  Solving for ILambda_4_0, Initial residual = 9.07398081109e-17, Final residual = 1.71233995758e-62, No Iterations 2
DILUPBiCGStab:  Solving for ILambda_5_0, Initial residual = 8.39635899464e-17, Final residual = 8.24293459042e-63, No Iterations 2
DILUPBiCGStab:  Solving for ILambda_6_0, Initial residual = 9.21255740022e-17, Final residual = 4.91986277281e-61, No Iterations 2
DILUPBiCGStab:  Solving for ILambda_7_0, Initial residual = 8.75406399903e-17, Final residual = 3.96701709841e-62, No Iterations 2
DILUPBiCGStab:  Solving for ILambda_8_0, Initial residual = 8.76438706471e-17, Final residual = 9.15437487275e-63, No Iterations 29
DILUPBiCGStab:  Solving for ILambda_9_0, Initial residual = 1.20335732232e-16, Final residual = 6.39735338975e-61, No Iterations 37
DILUPBiCGStab:  Solving for ILambda_10_0, Initial residual = 1.12541445524e-16, Final residual = 1.99947705737e-61, No Iterations 44
DILUPBiCGStab:  Solving for ILambda_11_0, Initial residual = 1.12637988704e-16, Final residual = 4.0761001825e-61, No Iterations 45
DILUPBiCGStab:  Solving for ILambda_12_0, Initial residual = 1.19401859303e-16, Final residual = 2.40570609036e-61, No Iterations 49
DILUPBiCGStab:  Solving for ILambda_13_0, Initial residual = 1.27334317121e-16, Final residual = 1.50094905032e-61, No Iterations 44
DILUPBiCGStab:  Solving for ILambda_14_0, Initial residual = 1.16005186891e-16, Final residual = 3.7629278883e-61, No Iterations 37
DILUPBiCGStab:  Solving for ILambda_15_0, Initial residual = 9.70248974174e-17, Final residual = 1.03848616481e-61, No Iterations 28
DILUPBiCGStab:  Solving for ILambda_16_0, Initial residual = 9.02901146531e-17, Final residual = 6.87632355172e-64, No Iterations 12
DILUPBiCGStab:  Solving for ILambda_17_0, Initial residual = 9.28065712911e-17, Final residual = 8.89298558525e-61, No Iterations 12
DILUPBiCGStab:  Solving for ILambda_18_0, Initial residual = 9.16045221235e-17, Final residual = 8.42827611413e-63, No Iterations 11
DILUPBiCGStab:  Solving for ILambda_19_0, Initial residual = 8.71054129392e-17, Final residual = 8.14914560578e-62, No Iterations 12
DILUPBiCGStab:  Solving for ILambda_20_0, Initial residual = 9.18588669771e-17, Final residual = 2.75187226624e-62, No Iterations 12
DILUPBiCGStab:  Solving for ILambda_21_0, Initial residual = 8.59498408364e-17, Final residual = 9.41194559299e-62, No Iterations 12
DILUPBiCGStab:  Solving for ILambda_22_0, Initial residual = 8.67477922835e-17, Final residual = 1.98688278964e-61, No Iterations 13
DILUPBiCGStab:  Solving for ILambda_23_0, Initial residual = 8.18354577331e-17, Final residual = 2.32236878482e-61, No Iterations 11
DILUPBiCGStab:  Solving for ILambda_24_0, Initial residual = 9.35923650482e-17, Final residual = 8.71516530812e-61, No Iterations 29
DILUPBiCGStab:  Solving for ILambda_25_0, Initial residual = 1.16550120955e-16, Final residual = 5.00512998182e-61, No Iterations 39
DILUPBiCGStab:  Solving for ILambda_26_0, Initial residual = 1.32043312686e-16, Final residual = 5.76465421415e-61, No Iterations 43
DILUPBiCGStab:  Solving for ILambda_27_0, Initial residual = 1.28854292626e-16, Final residual = 4.66782546024e-61, No Iterations 46
DILUPBiCGStab:  Solving for ILambda_28_0, Initial residual = 1.41769837277e-16, Final residual = 4.70218406524e-61, No Iterations 47
DILUPBiCGStab:  Solving for ILambda_29_0, Initial residual = 1.23776685191e-16, Final residual = 2.97654898297e-61, No Iterations 47
DILUPBiCGStab:  Solving for ILambda_30_0, Initial residual = 1.09063635759e-16, Final residual = 9.57744569956e-61, No Iterations 39
DILUPBiCGStab:  Solving for ILambda_31_0, Initial residual = 8.93234947981e-17, Final residual = 2.25180136664e-61, No Iterations 29
DILUPBiCGStab:  Solving for ILambda_32_0, Initial residual = 3.89045610332e-16, Final residual = 5.79542748322e-76, No Iterations 2
DILUPBiCGStab:  Solving for ILambda_33_0, Initial residual = 4.14568692639e-16, Final residual = 1.21996378629e-61, No Iterations 2
DILUPBiCGStab:  Solving for ILambda_34_0, Initial residual = 3.80039646892e-16, Final residual = 5.46205084372e-62, No Iterations 2
DILUPBiCGStab:  Solving for ILambda_35_0, Initial residual = 3.15396031453e-16, Final residual = 4.05218949657e-62, No Iterations 2
DILUPBiCGStab:  Solving for ILambda_36_0, Initial residual = 2.8199309686e-16, Final residual = 1.11844378097e-62, No Iterations 2
DILUPBiCGStab:  Solving for ILambda_37_0, Initial residual = 3.72203487937e-16, Final residual = 1.58834979938e-75, No Iterations 2
DILUPBiCGStab:  Solving for ILambda_38_0, Initial residual = 5.15433930034e-16, Final residual = 1.03923577376e-61, No Iterations 2
DILUPBiCGStab:  Solving for ILambda_39_0, Initial residual = 5.04001636195e-16, Final residual = 6.52367918006e-62, No Iterations 2
DILUPBiCGStab:  Solving for ILambda_40_0, Initial residual = 4.08275121997e-16, Final residual = 1.31918145159e-61, No Iterations 29
DILUPBiCGStab:  Solving for ILambda_41_0, Initial residual = 4.81781781543e-16, Final residual = 1.36087298368e-61, No Iterations 40
DILUPBiCGStab:  Solving for ILambda_42_0, Initial residual = 4.87933248789e-16, Final residual = 1.55491949839e-61, No Iterations 46
DILUPBiCGStab:  Solving for ILambda_43_0, Initial residual = 5.56045966266e-16, Final residual = 3.19183491982e-61, No Iterations 46
DILUPBiCGStab:  Solving for ILambda_44_0, Initial residual = 4.83820682451e-16, Final residual = 1.19377321118e-61, No Iterations 47
DILUPBiCGStab:  Solving for ILambda_45_0, Initial residual = 4.6881485227e-16, Final residual = 1.33423755925e-61, No Iterations 43
DILUPBiCGStab:  Solving for ILambda_46_0, Initial residual = 6.62604239174e-16, Final residual = 1.30534152632e-61, No Iterations 38
DILUPBiCGStab:  Solving for ILambda_47_0, Initial residual = 5.1231672084e-16, Final residual = 4.51290886974e-61, No Iterations 28
DILUPBiCGStab:  Solving for ILambda_48_0, Initial residual = 5.18244248248e-16, Final residual = 2.05079831865e-65, No Iterations 13
DILUPBiCGStab:  Solving for ILambda_49_0, Initial residual = 5.28943306389e-16, Final residual = 2.66519609228e-61, No Iterations 14
DILUPBiCGStab:  Solving for ILambda_50_0, Initial residual = 3.80740670096e-16, Final residual = 2.92879833537e-63, No Iterations 12
DILUPBiCGStab:  Solving for ILambda_51_0, Initial residual = 3.30006953966e-16, Final residual = 3.37647202351e-62, No Iterations 13
DILUPBiCGStab:  Solving for ILambda_52_0, Initial residual = 3.34296617933e-16, Final residual = 1.46356865643e-61, No Iterations 15
DILUPBiCGStab:  Solving for ILambda_53_0, Initial residual = 3.53999437355e-16, Final residual = 1.44488518452e-64, No Iterations 12
DILUPBiCGStab:  Solving for ILambda_54_0, Initial residual = 4.16499108115e-16, Final residual = 4.8102224984e-64, No Iterations 12
DILUPBiCGStab:  Solving for ILambda_55_0, Initial residual = 4.09195530679e-16, Final residual = 1.25164843055e-61, No Iterations 13
DILUPBiCGStab:  Solving for ILambda_56_0, Initial residual = 5.21543623285e-16, Final residual = 1.83832292781e-61, No Iterations 29
DILUPBiCGStab:  Solving for ILambda_57_0, Initial residual = 5.73639886361e-16, Final residual = 6.10728730738e-61, No Iterations 39
DILUPBiCGStab:  Solving for ILambda_58_0, Initial residual = 4.56259770769e-16, Final residual = 3.81564706708e-61, No Iterations 43
DILUPBiCGStab:  Solving for ILambda_59_0, Initial residual = 4.27848363846e-16, Final residual = 4.43911078729e-61, No Iterations 48
DILUPBiCGStab:  Solving for ILambda_60_0, Initial residual = 5.53754340093e-16, Final residual = 3.16322658611e-61, No Iterations 49
DILUPBiCGStab:  Solving for ILambda_61_0, Initial residual = 5.34080199872e-16, Final residual = 6.72824606843e-62, No Iterations 44
DILUPBiCGStab:  Solving for ILambda_62_0, Initial residual = 4.84050241552e-16, Final residual = 3.52509216152e-61, No Iterations 39
DILUPBiCGStab:  Solving for ILambda_63_0, Initial residual = 4.50324447171e-16, Final residual = 7.1354019256e-61, No Iterations 29
DILUPBiCGStab:  Solving for ILambda_64_0, Initial residual = 4.11654490489e-16, Final residual = 1.9469071699e-61, No Iterations 13
DILUPBiCGStab:  Solving for ILambda_65_0, Initial residual = 4.10205097966e-16, Final residual = 3.00617478035e-62, No Iterations 11
[...]
DILUPBiCGStab:  Solving for ILambda_108_0, Initial residual = 1.03488839708e-16, Final residual = 4.39529954256e-61, No Iterations 49
DILUPBiCGStab:  Solving for ILambda_109_0, Initial residual = 1.27233881489e-16, Final residual = 4.82207290358e-61, No Iterations 41
DILUPBiCGStab:  Solving for ILambda_110_0, Initial residual = 1.12976248674e-16, Final residual = 8.28579220846e-61, No Iterations 38
DILUPBiCGStab:  Solving for ILambda_111_0, Initial residual = 1.05005177034e-16, Final residual = 1.97807598093e-62, No Iterations 27
DILUPBiCGStab:  Solving for ILambda_112_0, Initial residual = 8.6483362439e-17, Final residual = 8.4954161773e-61, No Iterations 2
DILUPBiCGStab:  Solving for ILambda_113_0, Initial residual = 9.51802931612e-17, Final residual = 3.45402996807e-75, No Iterations 2
DILUPBiCGStab:  Solving for ILambda_114_0, Initial residual = 9.07531053871e-17, Final residual = 6.06222948165e-62, No Iterations 2
DILUPBiCGStab:  Solving for ILambda_115_0, Initial residual = 8.92473503131e-17, Final residual = 8.51992774695e-62, No Iterations 2
DILUPBiCGStab:  Solving for ILambda_116_0, Initial residual = 8.73541275792e-17, Final residual = 2.63195033439e-62, No Iterations 2
DILUPBiCGStab:  Solving for ILambda_117_0, Initial residual = 8.02833490797e-17, Final residual = 3.0779545943e-62, No Iterations 2
DILUPBiCGStab:  Solving for ILambda_118_0, Initial residual = 8.83922017888e-17, Final residual = 6.01686039681e-75, No Iterations 2
DILUPBiCGStab:  Solving for ILambda_119_0, Initial residual = 7.88290257657e-17, Final residual = 8.04308773628e-63, No Iterations 2
DILUPBiCGStab:  Solving for ILambda_120_0, Initial residual = 8.99376100197e-17, Final residual = 3.93485162431e-61, No Iterations 27
DILUPBiCGStab:  Solving for ILambda_121_0, Initial residual = 1.26251827924e-16, Final residual = 2.33137471156e-61, No Iterations 38
DILUPBiCGStab:  Solving for ILambda_122_0, Initial residual = 1.05833150756e-16, Final residual = 8.97502809834e-61, No Iterations 44
DILUPBiCGStab:  Solving for ILambda_123_0, Initial residual = 1.28079008425e-16, Final residual = 7.6244892766e-62, No Iterations 47
DILUPBiCGStab:  Solving for ILambda_124_0, Initial residual = 1.10927137629e-16, Final residual = 2.94733214318e-61, No Iterations 43
DILUPBiCGStab:  Solving for ILambda_125_0, Initial residual = 9.28864226682e-17, Final residual = 1.30486537748e-61, No Iterations 41
DILUPBiCGStab:  Solving for ILambda_126_0, Initial residual = 1.13203896069e-16, Final residual = 9.4558947154e-61, No Iterations 37
DILUPBiCGStab:  Solving for ILambda_127_0, Initial residual = 9.61715643307e-17, Final residual = 2.96783467681e-61, No Iterations 27
min/max(T) = 1000, 1000
PIMPLE: iteration 10
Radiation solver iter: 0
DILUPBiCGStab:  Solving for ILambda_0_0, Initial residual = 8.12925030907e-17, Final residual = 9.52949541276e-62, No Iterations 2
DILUPBiCGStab:  Solving for ILambda_1_0, Initial residual = 8.52399512324e-17, Final residual = 2.20940412242e-62, No Iterations 2
DILUPBiCGStab:  Solving for ILambda_2_0, Initial residual = 7.86327151692e-17, Final residual = 1.36344715698e-62, No Iterations 2
DILUPBiCGStab:  Solving for ILambda_3_0, Initial residual = 9.37658570301e-17, Final residual = 4.06759683605e-62, No Iterations 2
DILUPBiCGStab:  Solving for ILambda_4_0, Initial residual = 9.50298192977e-17, Final residual = 2.91615067193e-62, No Iterations 2
DILUPBiCGStab:  Solving for ILambda_5_0, Initial residual = 8.65782857006e-17, Final residual = 4.10939651481e-63, No Iterations 2
DILUPBiCGStab:  Solving for ILambda_6_0, Initial residual = 9.23488160819e-17, Final residual = 7.19004218358e-62, No Iterations 2
DILUPBiCGStab:  Solving for ILambda_7_0, Initial residual = 9.26454374981e-17, Final residual = 5.22533167575e-61, No Iterations 2
DILUPBiCGStab:  Solving for ILambda_8_0, Initial residual = 8.06956798392e-17, Final residual = 3.32920909705e-61, No Iterations 28
DILUPBiCGStab:  Solving for ILambda_9_0, Initial residual = 1.05662429898e-16, Final residual = 4.52346105821e-61, No Iterations 37
DILUPBiCGStab:  Solving for ILambda_10_0, Initial residual = 1.10799374496e-16, Final residual = 2.55859452088e-61, No Iterations 44
DILUPBiCGStab:  Solving for ILambda_11_0, Initial residual = 1.14718393062e-16, Final residual = 5.80522182246e-61, No Iterations 44
DILUPBiCGStab:  Solving for ILambda_12_0, Initial residual = 1.26765389006e-16, Final residual = 9.90805972162e-61, No Iterations 48
DILUPBiCGStab:  Solving for ILambda_13_0, Initial residual = 1.27814805967e-16, Final residual = 3.54084307813e-61, No Iterations 46
DILUPBiCGStab:  Solving for ILambda_14_0, Initial residual = 1.11595641294e-16, Final residual = 8.88826592118e-63, No Iterations 39
DILUPBiCGStab:  Solving for ILambda_15_0, Initial residual = 9.99992954895e-17, Final residual = 7.12678325589e-62, No Iterations 30
DILUPBiCGStab:  Solving for ILambda_16_0, Initial residual = 9.03650963151e-17, Final residual = 1.12376577761e-61, No Iterations 12
DILUPBiCGStab:  Solving for ILambda_17_0, Initial residual = 9.48297055426e-17, Final residual = 9.45686326126e-62, No Iterations 11
DILUPBiCGStab:  Solving for ILambda_18_0, Initial residual = 8.77944749681e-17, Final residual = 1.19611816974e-62, No Iterations 12
DILUPBiCGStab:  Solving for ILambda_19_0, Initial residual = 9.06469087518e-17, Final residual = 2.2677259086e-61, No Iterations 12
DILUPBiCGStab:  Solving for ILambda_20_0, Initial residual = 9.3294509772e-17, Final residual = 9.05722378119e-63, No Iterations 12
DILUPBiCGStab:  Solving for ILambda_21_0, Initial residual = 8.01891169393e-17, Final residual = 5.90482431493e-63, No Iterations 12
DILUPBiCGStab:  Solving for ILambda_22_0, Initial residual = 8.52090038111e-17, Final residual = 8.06670147037e-61, No Iterations 12
DILUPBiCGStab:  Solving for ILambda_23_0, Initial residual = 8.35382284667e-17, Final residual = 2.58090234106e-63, No Iterations 12
DILUPBiCGStab:  Solving for ILambda_24_0, Initial residual = 9.58670302082e-17, Final residual = 2.43477366408e-61, No Iterations 29
DILUPBiCGStab:  Solving for ILambda_25_0, Initial residual = 1.13448981826e-16, Final residual = 6.98873009818e-61, No Iterations 37
DILUPBiCGStab:  Solving for ILambda_26_0, Initial residual = 1.26895443262e-16, Final residual = 3.37756665371e-61, No Iterations 42
DILUPBiCGStab:  Solving for ILambda_27_0, Initial residual = 1.25789108725e-16, Final residual = 7.75909418867e-61, No Iterations 43
DILUPBiCGStab:  Solving for ILambda_28_0, Initial residual = 1.05980070426e-16, Final residual = 7.36799976849e-61, No Iterations 44
DILUPBiCGStab:  Solving for ILambda_29_0, Initial residual = 1.21710908568e-16, Final residual = 7.25619233814e-61, No Iterations 45
DILUPBiCGStab:  Solving for ILambda_30_0, Initial residual = 1.02601671894e-16, Final residual = 9.0334989557e-61, No Iterations 37
DILUPBiCGStab:  Solving for ILambda_31_0, Initial residual = 8.45803133033e-17, Final residual = 1.82779358625e-63, No Iterations 29
DILUPBiCGStab:  Solving for ILambda_32_0, Initial residual = 3.88608230914e-16, Final residual = 1.06350327345e-61, No Iterations 2
DILUPBiCGStab:  Solving for ILambda_33_0, Initial residual = 4.16630026104e-16, Final residual = 1.18123038503e-61, No Iterations 2
DILUPBiCGStab:  Solving for ILambda_34_0, Initial residual = 3.72225267879e-16, Final residual = 2.4319626447e-61, No Iterations 2
DILUPBiCGStab:  Solving for ILambda_35_0, Initial residual = 2.88727661201e-16, Final residual = 2.54554744841e-61, No Iterations 2
DILUPBiCGStab:  Solving for ILambda_36_0, Initial residual = 3.12721359531e-16, Final residual = 8.28989441571e-62, No Iterations 2
DILUPBiCGStab:  Solving for ILambda_37_0, Initial residual = 3.54210633612e-16, Final residual = 5.04864298267e-61, No Iterations 2
DILUPBiCGStab:  Solving for ILambda_38_0, Initial residual = 5.20728474147e-16, Final residual = 1.21853687546e-61, No Iterations 2
DILUPBiCGStab:  Solving for ILambda_39_0, Initial residual = 4.88528838512e-16, Final residual = 3.5402650997e-62, No Iterations 2
DILUPBiCGStab:  Solving for ILambda_40_0, Initial residual = 4.04548008048e-16, Final residual = 2.0903114158e-61, No Iterations 28
DILUPBiCGStab:  Solving for ILambda_41_0, Initial residual = 4.46167474476e-16, Final residual = 8.70263545088e-61, No Iterations 37
DILUPBiCGStab:  Solving for ILambda_42_0, Initial residual = 4.72466416258e-16, Final residual = 9.18243600604e-61, No Iterations 42
DILUPBiCGStab:  Solving for ILambda_43_0, Initial residual = 4.4599895777e-16, Final residual = 3.88548859844e-61, No Iterations 45
DILUPBiCGStab:  Solving for ILambda_44_0, Initial residual = 3.98366850478e-16, Final residual = 4.09360967981e-61, No Iterations 45
DILUPBiCGStab:  Solving for ILambda_45_0, Initial residual = 5.5504220612e-16, Final residual = 4.61508198946e-61, No Iterations 45
DILUPBiCGStab:  Solving for ILambda_46_0, Initial residual = 5.79861239828e-16, Final residual = 3.23291858162e-61, No Iterations 40
DILUPBiCGStab:  Solving for ILambda_47_0, Initial residual = 4.94823147415e-16, Final residual = 2.45312810128e-61, No Iterations 27
DILUPBiCGStab:  Solving for ILambda_48_0, Initial residual = 4.89465774351e-16, Final residual = 3.60814754784e-64, No Iterations 13
DILUPBiCGStab:  Solving for ILambda_49_0, Initial residual = 5.28661568641e-16, Final residual = 5.37705245729e-62, No Iterations 11
DILUPBiCGStab:  Solving for ILambda_50_0, Initial residual = 3.70027122972e-16, Final residual = 3.90979644744e-62, No Iterations 12
DILUPBiCGStab:  Solving for ILambda_51_0, Initial residual = 3.43710057354e-16, Final residual = 5.22049439928e-63, No Iterations 13
DILUPBiCGStab:  Solving for ILambda_52_0, Initial residual = 3.11212946862e-16, Final residual = 1.90071942039e-61, No Iterations 14
DILUPBiCGStab:  Solving for ILambda_53_0, Initial residual = 3.67468390767e-16, Final residual = 8.53325878627e-61, No Iterations 13
DILUPBiCGStab:  Solving for ILambda_54_0, Initial residual = 4.24264639272e-16, Final residual = 5.59691288662e-61, No Iterations 14
DILUPBiCGStab:  Solving for ILambda_55_0, Initial residual = 4.01461028935e-16, Final residual = 8.99697364224e-62, No Iterations 13
DILUPBiCGStab:  Solving for ILambda_56_0, Initial residual = 5.21467317804e-16, Final residual = 1.69181517421e-61, No Iterations 27
DILUPBiCGStab:  Solving for ILambda_57_0, Initial residual = 6.08871577225e-16, Final residual = 4.95608999068e-61, No Iterations 37
DILUPBiCGStab:  Solving for ILambda_58_0, Initial residual = 5.88272323918e-16, Final residual = 2.02709145396e-61, No Iterations 40
DILUPBiCGStab:  Solving for ILambda_59_0, Initial residual = 4.88076276337e-16, Final residual = 1.59726070736e-61, No Iterations 44
DILUPBiCGStab:  Solving for ILambda_60_0, Initial residual = 4.81184688086e-16, Final residual = 2.39999972164e-61, No Iterations 44
DILUPBiCGStab:  Solving for ILambda_61_0, Initial residual = 5.06153896903e-16, Final residual = 2.77797569851e-61, No Iterations 46
DILUPBiCGStab:  Solving for ILambda_62_0, Initial residual = 5.54638000516e-16, Final residual = 1.56927792506e-61, No Iterations 38
DILUPBiCGStab:  Solving for ILambda_63_0, Initial residual = 4.05903473822e-16, Final residual = 1.29341243155e-61, No Iterations 28
DILUPBiCGStab:  Solving for ILambda_64_0, Initial residual = 3.95580228885e-16, Final residual = 3.73312790389e-61, No Iterations 12
DILUPBiCGStab:  Solving for ILambda_65_0, Initial residual = 4.13226421901e-16, Final residual = 3.0584460353e-65, No Iterations 11
DILUPBiCGStab:  Solving for ILambda_66_0, Initial residual = 3.67911718076e-16, Final residual = 1.72817455782e-63, No Iterations 14
DILUPBiCGStab:  Solving for ILambda_67_0, Initial residual = 3.51059859571e-16, Final residual = 2.85414054397e-64, No Iterations 13
DILUPBiCGStab:  Solving for ILambda_68_0, Initial residual = 3.30916555663e-16, Final residual = 2.95768856103e-64, No Iterations 14
DILUPBiCGStab:  Solving for ILambda_69_0, Initial residual = 3.70039770953e-16, Final residual = 9.41221967229e-63, No Iterations 12
DILUPBiCGStab:  Solving for ILambda_70_0, Initial residual = 4.66464510016e-16, Final residual = 2.61799855907e-62, No Iterations 11
DILUPBiCGStab:  Solving for ILambda_71_0, Initial residual = 3.83819113432e-16, Final residual = 9.79570489914e-62, No Iterations 13
DILUPBiCGStab:  Solving for ILambda_72_0, Initial residual = 3.99925414906e-16, Final residual = 1.44987830632e-61, No Iterations 28
DILUPBiCGStab:  Solving for ILambda_73_0, Initial residual = 4.8046095614e-16, Final residual = 5.6572693212e-61, No Iterations 39
DILUPBiCGStab:  Solving for ILambda_74_0, Initial residual = 5.1418131516e-16, Final residual = 7.78815414124e-61, No Iterations 45
DILUPBiCGStab:  Solving for ILambda_75_0, Initial residual = 5.77209153823e-16, Final residual = 3.48783724213e-61, No Iterations 49
DILUPBiCGStab:  Solving for ILambda_76_0, Initial residual = 4.77499491526e-16, Final residual = 1.98318266536e-61, No Iterations 43
DILUPBiCGStab:  Solving for ILambda_77_0, Initial residual = 5.40805454988e-16, Final residual = 7.05632717103e-61, No Iterations 44
DILUPBiCGStab:  Solving for ILambda_78_0, Initial residual = 5.63266427259e-16, Final residual = 7.79967583481e-61, No Iterations 37
DILUPBiCGStab:  Solving for ILambda_79_0, Initial residual = 4.2337827677e-16, Final residual = 2.22630484761e-61, No Iterations 29
DILUPBiCGStab:  Solving for ILambda_80_0, Initial residual = 4.22642617179e-16, Final residual = 7.93729420452e-62, No Iterations 2
DILUPBiCGStab:  Solving for ILambda_81_0, Initial residual = 4.44591020565e-16, Final residual = 1.42343412729e-61, No Iterations 2
DILUPBiCGStab:  Solving for ILambda_82_0, Initial residual = 3.76872387522e-16, Final residual = 1.64039320418e-61, No Iterations 2
DILUPBiCGStab:  Solving for ILambda_83_0, Initial residual = 3.43115422321e-16, Final residual = 7.79131619478e-62, No Iterations 2
DILUPBiCGStab:  Solving for ILambda_84_0, Initial residual = 3.4777120189e-16, Final residual = 3.88232355375e-61, No Iterations 2
DILUPBiCGStab:  Solving for ILambda_85_0, Initial residual = 3.55517323895e-16, Final residual = 1.37699244399e-75, No Iterations 2
DILUPBiCGStab:  Solving for ILambda_86_0, Initial residual = 4.17656171672e-16, Final residual = 1.14800918907e-74, No Iterations 2
DILUPBiCGStab:  Solving for ILambda_87_0, Initial residual = 3.76243110789e-16, Final residual = 3.31315949934e-62, No Iterations 2
DILUPBiCGStab:  Solving for ILambda_88_0, Initial residual = 4.28582851652e-16, Final residual = 2.1250023875e-61, No Iterations 29
DILUPBiCGStab:  Solving for ILambda_89_0, Initial residual = 5.48062145732e-16, Final residual = 3.96319322324e-61, No Iterations 41
DILUPBiCGStab:  Solving for ILambda_90_0, Initial residual = 4.92908433203e-16, Final residual = 4.61875847466e-61, No Iterations 44
DILUPBiCGStab:  Solving for ILambda_91_0, Initial residual = 4.64835171727e-16, Final residual = 1.84588644282e-61, No Iterations 49
DILUPBiCGStab:  Solving for ILambda_92_0, Initial residual = 5.00178208114e-16, Final residual = 3.25525860973e-61, No Iterations 49
DILUPBiCGStab:  Solving for ILambda_93_0, Initial residual = 5.65231274641e-16, Final residual = 1.72679004345e-61, No Iterations 44
DILUPBiCGStab:  Solving for ILambda_94_0, Initial residual = 5.46362252679e-16, Final residual = 3.83695959077e-61, No Iterations 40
DILUPBiCGStab:  Solving for ILambda_95_0, Initial residual = 3.93568117052e-16, Final residual = 2.23010723449e-62, No Iterations 28
DILUPBiCGStab:  Solving for ILambda_96_0, Initial residual = 8.24094119129e-17, Final residual = 3.76043572058e-61, No Iterations 11
DILUPBiCGStab:  Solving for ILambda_97_0, Initial residual = 8.55179376062e-17, Final residual = 6.49000759398e-63, No Iterations 11
DILUPBiCGStab:  Solving for ILambda_98_0, Initial residual = 8.23050755287e-17, Final residual = 3.31245082098e-62, No Iterations 12
DILUPBiCGStab:  Solving for ILambda_99_0, Initial residual = 8.90736860497e-17, Final residual = 1.06095949315e-63, No Iterations 12
DILUPBiCGStab:  Solving for ILambda_100_0, Initial residual = 9.15636294628e-17, Final residual = 1.05176801167e-61, No Iterations 12
DILUPBiCGStab:  Solving for ILambda_101_0, Initial residual = 9.11261262263e-17, Final residual = 1.80170760506e-62, No Iterations 13
DILUPBiCGStab:  Solving for ILambda_102_0, Initial residual = 9.43389600889e-17, Final residual = 5.27882952373e-65, No Iterations 11
DILUPBiCGStab:  Solving for ILambda_103_0, Initial residual = 8.79918156072e-17, Final residual = 1.48323294702e-64, No Iterations 12
DILUPBiCGStab:  Solving for ILambda_104_0, Initial residual = 8.45222498349e-17, Final residual = 6.2382857163e-61, No Iterations 29
DILUPBiCGStab:  Solving for ILambda_105_0, Initial residual = 9.81277803316e-17, Final residual = 1.73102804727e-61, No Iterations 39
DILUPBiCGStab:  Solving for ILambda_106_0, Initial residual = 8.59855520803e-17, Final residual = 8.56297164614e-61, No Iterations 44
DILUPBiCGStab:  Solving for ILambda_107_0, Initial residual = 1.13052446603e-16, Final residual = 1.7769927662e-61, No Iterations 48
DILUPBiCGStab:  Solving for ILambda_108_0, Initial residual = 1.06357963967e-16, Final residual = 9.57500818182e-61, No Iterations 48
DILUPBiCGStab:  Solving for ILambda_109_0, Initial residual = 1.40798497748e-16, Final residual = 4.69728992007e-61, No Iterations 41
DILUPBiCGStab:  Solving for ILambda_110_0, Initial residual = 1.23332325184e-16, Final residual = 1.79828256017e-61, No Iterations 36
DILUPBiCGStab:  Solving for ILambda_111_0, Initial residual = 9.51927954162e-17, Final residual = 1.29076802799e-61, No Iterations 28
DILUPBiCGStab:  Solving for ILambda_112_0, Initial residual = 8.66609875373e-17, Final residual = 2.32286847225e-75, No Iterations 2
DILUPBiCGStab:  Solving for ILambda_113_0, Initial residual = 9.58746932872e-17, Final residual = 9.63812527027e-61, No Iterations 2
DILUPBiCGStab:  Solving for ILambda_114_0, Initial residual = 8.87636820453e-17, Final residual = 1.33482056296e-61, No Iterations 2
DILUPBiCGStab:  Solving for ILambda_115_0, Initial residual = 8.96655267224e-17, Final residual = 4.14371130245e-62, No Iterations 2
DILUPBiCGStab:  Solving for ILambda_116_0, Initial residual = 9.13080736535e-17, Final residual = 2.68027181897e-62, No Iterations 2
DILUPBiCGStab:  Solving for ILambda_117_0, Initial residual = 8.30503908993e-17, Final residual = 3.3337922253e-62, No Iterations 2
DILUPBiCGStab:  Solving for ILambda_118_0, Initial residual = 8.80701967752e-17, Final residual = 6.09438444699e-62, No Iterations 2
DILUPBiCGStab:  Solving for ILambda_119_0, Initial residual = 8.0753613515e-17, Final residual = 1.58684846915e-62, No Iterations 2
DILUPBiCGStab:  Solving for ILambda_120_0, Initial residual = 9.6187522523e-17, Final residual = 6.14292008352e-61, No Iterations 28
DILUPBiCGStab:  Solving for ILambda_121_0, Initial residual = 1.21662209093e-16, Final residual = 6.77926563632e-61, No Iterations 39
DILUPBiCGStab:  Solving for ILambda_122_0, Initial residual = 1.02646349787e-16, Final residual = 1.54454592746e-61, No Iterations 45
DILUPBiCGStab:  Solving for ILambda_123_0, Initial residual = 1.19668060435e-16, Final residual = 2.43706871167e-61, No Iterations 47
DILUPBiCGStab:  Solving for ILambda_124_0, Initial residual = 1.13140036412e-16, Final residual = 2.37906141612e-61, No Iterations 46
DILUPBiCGStab:  Solving for ILambda_125_0, Initial residual = 1.00781577873e-16, Final residual = 1.69225152558e-61, No Iterations 43
DILUPBiCGStab:  Solving for ILambda_126_0, Initial residual = 1.0014996952e-16, Final residual = 4.6642187443e-61, No Iterations 38
DILUPBiCGStab:  Solving for ILambda_127_0, Initial residual = 8.86699518144e-17, Final residual = 3.3609280404e-63, No Iterations 29
min/max(T) = 1000, 1000
ExecutionTime = 15.77 s  ClockTime = 16 s

writeObjects writeObjects1.writeObjects write:
    writing object a
    writing object qem
End

