/*---------------------------------------------------------------------------*\
| =========                 |                                                 |
| \\      /  F ield         | OpenFOAM: The Open Source CFD Toolbox           |
|  \\    /   O peration     | Version:  2306                                  |
|   \\  /    A nd           | Website:  www.openfoam.com                      |
|    \\/     M anipulation  |                                                 |
\*---------------------------------------------------------------------------*/
Build  : _fbf00d6b-20230626 OPENFOAM=2306 version=2306
Arch   : "LSB;label=32;scalar=64"
Exec   : fireRADFoam_MaCFP
Date   : Mar 13 2024
Time   : 00:20:10
Host   : pop-os
PID    : 198402
I/O    : uncollated
Case   : /home/rafay/Desktop/Study/Radiative_Heat_Transfer/Local_copy_RHT2324/01_Projects/02_Rafay/Case_1_q1D_SolidAngle/new_case3/th_4-ph_8/tau_0.05/res_8
nProcs : 1
trapFpe: Floating point exception trapping enabled (FOAM_SIGFPE).
fileModificationChecking : Monitoring run-time modified files using timeStampMaster (fileModificationSkew 5, maxFileModificationPolls 20)
allowSystemOperations : Allowing user-supplied system call operations

// * * * * * * * * * * * * * * * * * * * * * * * * * * * * * * * * * * * * * //
Create time

Create mesh for time = 0


PIMPLE: no residual control data found. Calculations will employ 10 corrector loops

Reading thermophysical properties

Selecting thermodynamics package 
{
    type            hePsiThermo;
    mixture         singleStepReactingMixture;
    transport       sutherland;
    thermo          janaf;
    energy          sensibleEnthalpy;
    equationOfState perfectGas;
    specie          specie;
}

Selecting chemistryReader foamChemistryReader
    elements not defined in "/home/rafay/Desktop/Study/Radiative_Heat_Transfer/Local_copy_RHT2324/01_Projects/02_Rafay/Case_1_q1D_SolidAngle/new_case3/th_4-ph_8/tau_0.05/res_8/constant/reactions"
Fuel heat of combustion :47168962.4726
stoichiometric air-fuel ratio :14.6914056505
stoichiometric oxygen-fuel ratio :3.42181919285
Maximum products mass concentrations:
    H2O: 0.0818486943001
    CO2: 0.199950099979
    N2: 0.718201205721
Creating component thermo properties:
    multi-component carrier - 6 species
    no liquid components
    no solid components
Creating field rho


Reading field U

Reading/calculating face flux field phi

Selecting radiationModel fvDOM
Selecting absorptionEmissionModel constantAbsorptionEmission
Selecting scatterModel none
Selecting sootModel none
fvDOM : Allocated 128 rays with average orientation:
	I0 : dAve : 	(0.00274192284156 0.0278392098 0.0490873852123) : omega : 	0.0575094490319 : d : 	(0.0375095356919 0.38084070704 0.923879532511)
	I1 : dAve : 	(0.00812039796756 0.0267693645798 0.0490873852123) : omega : 	0.0575094490319 : d : 	(0.111087136655 0.366205212247 0.923879532511)
	I2 : dAve : 	(0.0131868107536 0.0246707876912 0.0490873852123) : omega : 	0.0575094490319 : d : 	(0.180395721254 0.337496656517 0.923879532511)
	I3 : dAve : 	(0.0177464617977 0.0216241262672 0.0490873852123) : omega : 	0.0575094490319 : d : 	(0.242771799453 0.295818293547 0.923879532511)
	I4 : dAve : 	(0.0216241262672 0.0177464617977 0.0490873852123) : omega : 	0.0575094490319 : d : 	(0.295818293547 0.242771799453 0.923879532511)
	I5 : dAve : 	(0.0246707876912 0.0131868107536 0.0490873852123) : omega : 	0.0575094490319 : d : 	(0.337496656517 0.180395721254 0.923879532511)
	I6 : dAve : 	(0.0267693645798 0.00812039796756 0.0490873852123) : omega : 	0.0575094490319 : d : 	(0.366205212247 0.111087136655 0.923879532511)
	I7 : dAve : 	(0.0278392098 0.00274192284156 0.0490873852123) : omega : 	0.0575094490319 : d : 	(0.38084070704 0.0375095356919 0.923879532511)
	I8 : dAve : 	(0.0278392098 -0.00274192284156 0.0490873852123) : omega : 	0.0575094490319 : d : 	(0.38084070704 -0.0375095356919 0.923879532511)
	I9 : dAve : 	(0.0267693645798 -0.00812039796756 0.0490873852123) : omega : 	0.0575094490319 : d : 	(0.366205212247 -0.111087136655 0.923879532511)
	I10 : dAve : 	(0.0246707876912 -0.0131868107536 0.0490873852123) : omega : 	0.0575094490319 : d : 	(0.337496656517 -0.180395721254 0.923879532511)
	I11 : dAve : 	(0.0216241262672 -0.0177464617977 0.0490873852123) : omega : 	0.0575094490319 : d : 	(0.295818293547 -0.242771799453 0.923879532511)
	I12 : dAve : 	(0.0177464617977 -0.0216241262672 0.0490873852123) : omega : 	0.0575094490319 : d : 	(0.242771799453 -0.295818293547 0.923879532511)
	I13 : dAve : 	(0.0131868107536 -0.0246707876912 0.0490873852123) : omega : 	0.0575094490319 : d : 	(0.180395721254 -0.337496656517 0.923879532511)
	I14 : dAve : 	(0.00812039796756 -0.0267693645798 0.0490873852123) : omega : 	0.0575094490319 : d : 	(0.111087136655 -0.366205212247 0.923879532511)
	I15 : dAve : 	(0.00274192284156 -0.0278392098 0.0490873852123) : omega : 	0.0575094490319 : d : 	(0.0375095356919 -0.38084070704 0.923879532511)
	I16 : dAve : 	(-0.00274192284156 -0.0278392098 0.0490873852123) : omega : 	0.0575094490319 : d : 	(-0.0375095356919 -0.38084070704 0.923879532511)
	I17 : dAve : 	(-0.00812039796756 -0.0267693645798 0.0490873852123) : omega : 	0.0575094490319 : d : 	(-0.111087136655 -0.366205212247 0.923879532511)
	I18 : dAve : 	(-0.0131868107536 -0.0246707876912 0.0490873852123) : omega : 	0.0575094490319 : d : 	(-0.180395721254 -0.337496656517 0.923879532511)
	I19 : dAve : 	(-0.0177464617977 -0.0216241262672 0.0490873852123) : omega : 	0.0575094490319 : d : 	(-0.242771799453 -0.295818293547 0.923879532511)
	I20 : dAve : 	(-0.0216241262672 -0.0177464617977 0.0490873852123) : omega : 	0.0575094490319 : d : 	(-0.295818293547 -0.242771799453 0.923879532511)
	I21 : dAve : 	(-0.0246707876912 -0.0131868107536 0.0490873852123) : omega : 	0.0575094490319 : d : 	(-0.337496656517 -0.180395721254 0.923879532511)
	I22 : dAve : 	(-0.0267693645798 -0.00812039796756 0.0490873852123) : omega : 	0.0575094490319 : d : 	(-0.366205212247 -0.111087136655 0.923879532511)
	I23 : dAve : 	(-0.0278392098 -0.00274192284156 0.0490873852123) : omega : 	0.0575094490319 : d : 	(-0.38084070704 -0.0375095356919 0.923879532511)
	I24 : dAve : 	(-0.0278392098 0.00274192284156 0.0490873852123) : omega : 	0.0575094490319 : d : 	(-0.38084070704 0.0375095356919 0.923879532511)
	I25 : dAve : 	(-0.0267693645798 0.00812039796756 0.0490873852123) : omega : 	0.0575094490319 : d : 	(-0.366205212247 0.111087136655 0.923879532511)
	I26 : dAve : 	(-0.0246707876912 0.0131868107536 0.0490873852123) : omega : 	0.0575094490319 : d : 	(-0.337496656517 0.180395721254 0.923879532511)
	I27 : dAve : 	(-0.0216241262672 0.0177464617977 0.0490873852123) : omega : 	0.0575094490319 : d : 	(-0.295818293547 0.242771799453 0.923879532511)
	I28 : dAve : 	(-0.0177464617977 0.0216241262672 0.0490873852123) : omega : 	0.0575094490319 : d : 	(-0.242771799453 0.295818293547 0.923879532511)
	I29 : dAve : 	(-0.0131868107536 0.0246707876912 0.0490873852123) : omega : 	0.0575094490319 : d : 	(-0.180395721254 0.337496656517 0.923879532511)
	I30 : dAve : 	(-0.00812039796756 0.0267693645798 0.0490873852123) : omega : 	0.0575094490319 : d : 	(-0.111087136655 0.366205212247 0.923879532511)
	I31 : dAve : 	(-0.00274192284156 0.0278392098 0.0490873852123) : omega : 	0.0575094490319 : d : 	(-0.0375095356919 0.38084070704 0.923879532511)
	I32 : dAve : 	(0.0123492826399 0.125384370808 0.0490873852123) : omega : 	0.138840091817 : d : 	(0.0905560297858 0.91943080004 0.382683432365)
	I33 : dAve : 	(0.0365732719135 0.120565919754 0.0490873852123) : omega : 	0.138840091817 : d : 	(0.268188071917 0.884097590017 0.382683432365)
	I34 : dAve : 	(0.059391770858 0.111114188018 0.0490873852123) : omega : 	0.138840091817 : d : 	(0.435513796846 0.814789005418 0.382683432365)
	I35 : dAve : 	(0.0799278773557 0.0973924003507 0.0490873852123) : omega : 	0.138840091817 : d : 	(0.586102970801 0.714168536279 0.382683432365)
	I36 : dAve : 	(0.0973924003507 0.0799278773557 0.0490873852123) : omega : 	0.138840091817 : d : 	(0.714168536279 0.586102970801 0.382683432365)
	I37 : dAve : 	(0.111114188018 0.059391770858 0.0490873852123) : omega : 	0.138840091817 : d : 	(0.814789005418 0.435513796846 0.382683432365)
	I38 : dAve : 	(0.120565919754 0.0365732719135 0.0490873852123) : omega : 	0.138840091817 : d : 	(0.884097590017 0.268188071917 0.382683432365)
	I39 : dAve : 	(0.125384370808 0.0123492826399 0.0490873852123) : omega : 	0.138840091817 : d : 	(0.91943080004 0.0905560297858 0.382683432365)
	I40 : dAve : 	(0.125384370808 -0.0123492826399 0.0490873852123) : omega : 	0.138840091817 : d : 	(0.91943080004 -0.0905560297858 0.382683432365)
	I41 : dAve : 	(0.120565919754 -0.0365732719135 0.0490873852123) : omega : 	0.138840091817 : d : 	(0.884097590017 -0.268188071917 0.382683432365)
	I42 : dAve : 	(0.111114188018 -0.059391770858 0.0490873852123) : omega : 	0.138840091817 : d : 	(0.814789005418 -0.435513796846 0.382683432365)
	I43 : dAve : 	(0.0973924003507 -0.0799278773557 0.0490873852123) : omega : 	0.138840091817 : d : 	(0.714168536279 -0.586102970801 0.382683432365)
	I44 : dAve : 	(0.0799278773557 -0.0973924003507 0.0490873852123) : omega : 	0.138840091817 : d : 	(0.586102970801 -0.714168536279 0.382683432365)
	I45 : dAve : 	(0.059391770858 -0.111114188018 0.0490873852123) : omega : 	0.138840091817 : d : 	(0.435513796846 -0.814789005418 0.382683432365)
	I46 : dAve : 	(0.0365732719135 -0.120565919754 0.0490873852123) : omega : 	0.138840091817 : d : 	(0.268188071917 -0.884097590017 0.382683432365)
	I47 : dAve : 	(0.0123492826399 -0.125384370808 0.0490873852123) : omega : 	0.138840091817 : d : 	(0.0905560297858 -0.91943080004 0.382683432365)
	I48 : dAve : 	(-0.0123492826399 -0.125384370808 0.0490873852123) : omega : 	0.138840091817 : d : 	(-0.0905560297858 -0.91943080004 0.382683432365)
	I49 : dAve : 	(-0.0365732719135 -0.120565919754 0.0490873852123) : omega : 	0.138840091817 : d : 	(-0.268188071917 -0.884097590017 0.382683432365)
	I50 : dAve : 	(-0.059391770858 -0.111114188018 0.0490873852123) : omega : 	0.138840091817 : d : 	(-0.435513796846 -0.814789005418 0.382683432365)
	I51 : dAve : 	(-0.0799278773557 -0.0973924003507 0.0490873852123) : omega : 	0.138840091817 : d : 	(-0.586102970801 -0.714168536279 0.382683432365)
	I52 : dAve : 	(-0.0973924003507 -0.0799278773557 0.0490873852123) : omega : 	0.138840091817 : d : 	(-0.714168536279 -0.586102970801 0.382683432365)
	I53 : dAve : 	(-0.111114188018 -0.059391770858 0.0490873852123) : omega : 	0.138840091817 : d : 	(-0.814789005418 -0.435513796846 0.382683432365)
	I54 : dAve : 	(-0.120565919754 -0.0365732719135 0.0490873852123) : omega : 	0.138840091817 : d : 	(-0.884097590017 -0.268188071917 0.382683432365)
	I55 : dAve : 	(-0.125384370808 -0.0123492826399 0.0490873852123) : omega : 	0.138840091817 : d : 	(-0.91943080004 -0.0905560297858 0.382683432365)
	I56 : dAve : 	(-0.125384370808 0.0123492826399 0.0490873852123) : omega : 	0.138840091817 : d : 	(-0.91943080004 0.0905560297858 0.382683432365)
	I57 : dAve : 	(-0.120565919754 0.0365732719135 0.0490873852123) : omega : 	0.138840091817 : d : 	(-0.884097590017 0.268188071917 0.382683432365)
	I58 : dAve : 	(-0.111114188018 0.059391770858 0.0490873852123) : omega : 	0.138840091817 : d : 	(-0.814789005418 0.435513796846 0.382683432365)
	I59 : dAve : 	(-0.0973924003507 0.0799278773557 0.0490873852123) : omega : 	0.138840091817 : d : 	(-0.714168536279 0.586102970801 0.382683432365)
	I60 : dAve : 	(-0.0799278773557 0.0973924003507 0.0490873852123) : omega : 	0.138840091817 : d : 	(-0.586102970801 0.714168536279 0.382683432365)
	I61 : dAve : 	(-0.059391770858 0.111114188018 0.0490873852123) : omega : 	0.138840091817 : d : 	(-0.435513796846 0.814789005418 0.382683432365)
	I62 : dAve : 	(-0.0365732719135 0.120565919754 0.0490873852123) : omega : 	0.138840091817 : d : 	(-0.268188071917 0.884097590017 0.382683432365)
	I63 : dAve : 	(-0.0123492826399 0.125384370808 0.0490873852123) : omega : 	0.138840091817 : d : 	(-0.0905560297858 0.91943080004 0.382683432365)
	I64 : dAve : 	(0.0123492826399 0.125384370808 -0.0490873852123) : omega : 	0.138840091817 : d : 	(0.0905560297858 0.91943080004 -0.382683432365)
	I65 : dAve : 	(0.0365732719135 0.120565919754 -0.0490873852123) : omega : 	0.138840091817 : d : 	(0.268188071917 0.884097590017 -0.382683432365)
	I66 : dAve : 	(0.059391770858 0.111114188018 -0.0490873852123) : omega : 	0.138840091817 : d : 	(0.435513796846 0.814789005418 -0.382683432365)
	I67 : dAve : 	(0.0799278773557 0.0973924003507 -0.0490873852123) : omega : 	0.138840091817 : d : 	(0.586102970801 0.714168536279 -0.382683432365)
	I68 : dAve : 	(0.0973924003507 0.0799278773557 -0.0490873852123) : omega : 	0.138840091817 : d : 	(0.714168536279 0.586102970801 -0.382683432365)
	I69 : dAve : 	(0.111114188018 0.059391770858 -0.0490873852123) : omega : 	0.138840091817 : d : 	(0.814789005418 0.435513796846 -0.382683432365)
	I70 : dAve : 	(0.120565919754 0.0365732719135 -0.0490873852123) : omega : 	0.138840091817 : d : 	(0.884097590017 0.268188071917 -0.382683432365)
	I71 : dAve : 	(0.125384370808 0.0123492826399 -0.0490873852123) : omega : 	0.138840091817 : d : 	(0.91943080004 0.0905560297858 -0.382683432365)
	I72 : dAve : 	(0.125384370808 -0.0123492826399 -0.0490873852123) : omega : 	0.138840091817 : d : 	(0.91943080004 -0.0905560297858 -0.382683432365)
	I73 : dAve : 	(0.120565919754 -0.0365732719135 -0.0490873852123) : omega : 	0.138840091817 : d : 	(0.884097590017 -0.268188071917 -0.382683432365)
	I74 : dAve : 	(0.111114188018 -0.059391770858 -0.0490873852123) : omega : 	0.138840091817 : d : 	(0.814789005418 -0.435513796846 -0.382683432365)
	I75 : dAve : 	(0.0973924003507 -0.0799278773557 -0.0490873852123) : omega : 	0.138840091817 : d : 	(0.714168536279 -0.586102970801 -0.382683432365)
	I76 : dAve : 	(0.0799278773557 -0.0973924003507 -0.0490873852123) : omega : 	0.138840091817 : d : 	(0.586102970801 -0.714168536279 -0.382683432365)
	I77 : dAve : 	(0.059391770858 -0.111114188018 -0.0490873852123) : omega : 	0.138840091817 : d : 	(0.435513796846 -0.814789005418 -0.382683432365)
	I78 : dAve : 	(0.0365732719135 -0.120565919754 -0.0490873852123) : omega : 	0.138840091817 : d : 	(0.268188071917 -0.884097590017 -0.382683432365)
	I79 : dAve : 	(0.0123492826399 -0.125384370808 -0.0490873852123) : omega : 	0.138840091817 : d : 	(0.0905560297858 -0.91943080004 -0.382683432365)
	I80 : dAve : 	(-0.0123492826399 -0.125384370808 -0.0490873852123) : omega : 	0.138840091817 : d : 	(-0.0905560297858 -0.91943080004 -0.382683432365)
	I81 : dAve : 	(-0.0365732719135 -0.120565919754 -0.0490873852123) : omega : 	0.138840091817 : d : 	(-0.268188071917 -0.884097590017 -0.382683432365)
	I82 : dAve : 	(-0.059391770858 -0.111114188018 -0.0490873852123) : omega : 	0.138840091817 : d : 	(-0.435513796846 -0.814789005418 -0.382683432365)
	I83 : dAve : 	(-0.0799278773557 -0.0973924003507 -0.0490873852123) : omega : 	0.138840091817 : d : 	(-0.586102970801 -0.714168536279 -0.382683432365)
	I84 : dAve : 	(-0.0973924003507 -0.0799278773557 -0.0490873852123) : omega : 	0.138840091817 : d : 	(-0.714168536279 -0.586102970801 -0.382683432365)
	I85 : dAve : 	(-0.111114188018 -0.059391770858 -0.0490873852123) : omega : 	0.138840091817 : d : 	(-0.814789005418 -0.435513796846 -0.382683432365)
	I86 : dAve : 	(-0.120565919754 -0.0365732719135 -0.0490873852123) : omega : 	0.138840091817 : d : 	(-0.884097590017 -0.268188071917 -0.382683432365)
	I87 : dAve : 	(-0.125384370808 -0.0123492826399 -0.0490873852123) : omega : 	0.138840091817 : d : 	(-0.91943080004 -0.0905560297858 -0.382683432365)
	I88 : dAve : 	(-0.125384370808 0.0123492826399 -0.0490873852123) : omega : 	0.138840091817 : d : 	(-0.91943080004 0.0905560297858 -0.382683432365)
	I89 : dAve : 	(-0.120565919754 0.0365732719135 -0.0490873852123) : omega : 	0.138840091817 : d : 	(-0.884097590017 0.268188071917 -0.382683432365)
	I90 : dAve : 	(-0.111114188018 0.059391770858 -0.0490873852123) : omega : 	0.138840091817 : d : 	(-0.814789005418 0.435513796846 -0.382683432365)
	I91 : dAve : 	(-0.0973924003507 0.0799278773557 -0.0490873852123) : omega : 	0.138840091817 : d : 	(-0.714168536279 0.586102970801 -0.382683432365)
	I92 : dAve : 	(-0.0799278773557 0.0973924003507 -0.0490873852123) : omega : 	0.138840091817 : d : 	(-0.586102970801 0.714168536279 -0.382683432365)
	I93 : dAve : 	(-0.059391770858 0.111114188018 -0.0490873852123) : omega : 	0.138840091817 : d : 	(-0.435513796846 0.814789005418 -0.382683432365)
	I94 : dAve : 	(-0.0365732719135 0.120565919754 -0.0490873852123) : omega : 	0.138840091817 : d : 	(-0.268188071917 0.884097590017 -0.382683432365)
	I95 : dAve : 	(-0.0123492826399 0.125384370808 -0.0490873852123) : omega : 	0.138840091817 : d : 	(-0.0905560297858 0.91943080004 -0.382683432365)
	I96 : dAve : 	(0.00274192284156 0.0278392098 -0.0490873852123) : omega : 	0.0575094490319 : d : 	(0.0375095356919 0.38084070704 -0.923879532511)
	I97 : dAve : 	(0.00812039796756 0.0267693645798 -0.0490873852123) : omega : 	0.0575094490319 : d : 	(0.111087136655 0.366205212247 -0.923879532511)
	I98 : dAve : 	(0.0131868107536 0.0246707876912 -0.0490873852123) : omega : 	0.0575094490319 : d : 	(0.180395721254 0.337496656517 -0.923879532511)
	I99 : dAve : 	(0.0177464617977 0.0216241262672 -0.0490873852123) : omega : 	0.0575094490319 : d : 	(0.242771799453 0.295818293547 -0.923879532511)
	I100 : dAve : 	(0.0216241262672 0.0177464617977 -0.0490873852123) : omega : 	0.0575094490319 : d : 	(0.295818293547 0.242771799453 -0.923879532511)
	I101 : dAve : 	(0.0246707876912 0.0131868107536 -0.0490873852123) : omega : 	0.0575094490319 : d : 	(0.337496656517 0.180395721254 -0.923879532511)
	I102 : dAve : 	(0.0267693645798 0.00812039796756 -0.0490873852123) : omega : 	0.0575094490319 : d : 	(0.366205212247 0.111087136655 -0.923879532511)
	I103 : dAve : 	(0.0278392098 0.00274192284156 -0.0490873852123) : omega : 	0.0575094490319 : d : 	(0.38084070704 0.0375095356919 -0.923879532511)
	I104 : dAve : 	(0.0278392098 -0.00274192284156 -0.0490873852123) : omega : 	0.0575094490319 : d : 	(0.38084070704 -0.0375095356919 -0.923879532511)
	I105 : dAve : 	(0.0267693645798 -0.00812039796756 -0.0490873852123) : omega : 	0.0575094490319 : d : 	(0.366205212247 -0.111087136655 -0.923879532511)
	I106 : dAve : 	(0.0246707876912 -0.0131868107536 -0.0490873852123) : omega : 	0.0575094490319 : d : 	(0.337496656517 -0.180395721254 -0.923879532511)
	I107 : dAve : 	(0.0216241262672 -0.0177464617977 -0.0490873852123) : omega : 	0.0575094490319 : d : 	(0.295818293547 -0.242771799453 -0.923879532511)
	I108 : dAve : 	(0.0177464617977 -0.0216241262672 -0.0490873852123) : omega : 	0.0575094490319 : d : 	(0.242771799453 -0.295818293547 -0.923879532511)
	I109 : dAve : 	(0.0131868107536 -0.0246707876912 -0.0490873852123) : omega : 	0.0575094490319 : d : 	(0.180395721254 -0.337496656517 -0.923879532511)
	I110 : dAve : 	(0.00812039796756 -0.0267693645798 -0.0490873852123) : omega : 	0.0575094490319 : d : 	(0.111087136655 -0.366205212247 -0.923879532511)
	I111 : dAve : 	(0.00274192284156 -0.0278392098 -0.0490873852123) : omega : 	0.0575094490319 : d : 	(0.0375095356919 -0.38084070704 -0.923879532511)
	I112 : dAve : 	(-0.00274192284156 -0.0278392098 -0.0490873852123) : omega : 	0.0575094490319 : d : 	(-0.0375095356919 -0.38084070704 -0.923879532511)
	I113 : dAve : 	(-0.00812039796756 -0.0267693645798 -0.0490873852123) : omega : 	0.0575094490319 : d : 	(-0.111087136655 -0.366205212247 -0.923879532511)
	I114 : dAve : 	(-0.0131868107536 -0.0246707876912 -0.0490873852123) : omega : 	0.0575094490319 : d : 	(-0.180395721254 -0.337496656517 -0.923879532511)
	I115 : dAve : 	(-0.0177464617977 -0.0216241262672 -0.0490873852123) : omega : 	0.0575094490319 : d : 	(-0.242771799453 -0.295818293547 -0.923879532511)
	I116 : dAve : 	(-0.0216241262672 -0.0177464617977 -0.0490873852123) : omega : 	0.0575094490319 : d : 	(-0.295818293547 -0.242771799453 -0.923879532511)
	I117 : dAve : 	(-0.0246707876912 -0.0131868107536 -0.0490873852123) : omega : 	0.0575094490319 : d : 	(-0.337496656517 -0.180395721254 -0.923879532511)
	I118 : dAve : 	(-0.0267693645798 -0.00812039796756 -0.0490873852123) : omega : 	0.0575094490319 : d : 	(-0.366205212247 -0.111087136655 -0.923879532511)
	I119 : dAve : 	(-0.0278392098 -0.00274192284156 -0.0490873852123) : omega : 	0.0575094490319 : d : 	(-0.38084070704 -0.0375095356919 -0.923879532511)
	I120 : dAve : 	(-0.0278392098 0.00274192284156 -0.0490873852123) : omega : 	0.0575094490319 : d : 	(-0.38084070704 0.0375095356919 -0.923879532511)
	I121 : dAve : 	(-0.0267693645798 0.00812039796756 -0.0490873852123) : omega : 	0.0575094490319 : d : 	(-0.366205212247 0.111087136655 -0.923879532511)
	I122 : dAve : 	(-0.0246707876912 0.0131868107536 -0.0490873852123) : omega : 	0.0575094490319 : d : 	(-0.337496656517 0.180395721254 -0.923879532511)
	I123 : dAve : 	(-0.0216241262672 0.0177464617977 -0.0490873852123) : omega : 	0.0575094490319 : d : 	(-0.295818293547 0.242771799453 -0.923879532511)
	I124 : dAve : 	(-0.0177464617977 0.0216241262672 -0.0490873852123) : omega : 	0.0575094490319 : d : 	(-0.242771799453 0.295818293547 -0.923879532511)
	I125 : dAve : 	(-0.0131868107536 0.0246707876912 -0.0490873852123) : omega : 	0.0575094490319 : d : 	(-0.180395721254 0.337496656517 -0.923879532511)
	I126 : dAve : 	(-0.00812039796756 0.0267693645798 -0.0490873852123) : omega : 	0.0575094490319 : d : 	(-0.111087136655 0.366205212247 -0.923879532511)
	I127 : dAve : 	(-0.00274192284156 0.0278392098 -0.0490873852123) : omega : 	0.0575094490319 : d : 	(-0.0375095356919 0.38084070704 -0.923879532511)
Total omega : 12.5663706144

Courant Number mean: 0 max: 0

Starting time loop

Sampled set:
    data -> csv

Sampled set:
    data -> csv

Sampled surface:
    yNormal -> ensight
        sampledCuttingPlane: yNormal : plane:(0 1 0) (0 0 0) offsets:(0)

Sampled surface:
    zNormal -> ensight
        sampledCuttingPlane: zNormal : plane:(0 0 1) (0 0 0) offsets:(0)

Sampled surface:
    patchAll -> ensight
        sampledPatch: patchAll : patches:(".*WW.*")

deltaT = 1
Time = 1

PIMPLE: iteration 1
Radiation solver iter: 0
DILUPBiCGStab:  Solving for ILambda_0_0, Initial residual = 1, Final residual = 3.56611278225e-72, No Iterations 3
DILUPBiCGStab:  Solving for ILambda_1_0, Initial residual = 1, Final residual = 6.77107850406e-72, No Iterations 3
DILUPBiCGStab:  Solving for ILambda_2_0, Initial residual = 1, Final residual = 1.83369689203e-71, No Iterations 3
DILUPBiCGStab:  Solving for ILambda_3_0, Initial residual = 1, Final residual = 2.76494253176e-72, No Iterations 3
DILUPBiCGStab:  Solving for ILambda_4_0, Initial residual = 1, Final residual = 3.55795866813e-72, No Iterations 3
DILUPBiCGStab:  Solving for ILambda_5_0, Initial residual = 1, Final residual = 8.80898808053e-72, No Iterations 3
DILUPBiCGStab:  Solving for ILambda_6_0, Initial residual = 1, Final residual = 3.51946103717e-72, No Iterations 3
DILUPBiCGStab:  Solving for ILambda_7_0, Initial residual = 1, Final residual = 1.14874650751e-71, No Iterations 3
DILUPBiCGStab:  Solving for ILambda_8_0, Initial residual = 1, Final residual = 3.56958650085e-61, No Iterations 79
DILUPBiCGStab:  Solving for ILambda_9_0, Initial residual = 1, Final residual = 1.10523760458e-61, No Iterations 130
DILUPBiCGStab:  Solving for ILambda_10_0, Initial residual = 1, Final residual = 5.25208366151e-61, No Iterations 156
DILUPBiCGStab:  Solving for ILambda_11_0, Initial residual = 1, Final residual = 4.48206902412e-61, No Iterations 167
DILUPBiCGStab:  Solving for ILambda_12_0, Initial residual = 1, Final residual = 4.73104610979e-61, No Iterations 169
DILUPBiCGStab:  Solving for ILambda_13_0, Initial residual = 1, Final residual = 1.85847398197e-61, No Iterations 159
DILUPBiCGStab:  Solving for ILambda_14_0, Initial residual = 1, Final residual = 4.03807567837e-61, No Iterations 131
DILUPBiCGStab:  Solving for ILambda_15_0, Initial residual = 1, Final residual = 4.12505738855e-61, No Iterations 79
DILUPBiCGStab:  Solving for ILambda_16_0, Initial residual = 1, Final residual = 3.22359188216e-61, No Iterations 46
DILUPBiCGStab:  Solving for ILambda_17_0, Initial residual = 1, Final residual = 9.16021846214e-62, No Iterations 49
DILUPBiCGStab:  Solving for ILambda_18_0, Initial residual = 1, Final residual = 8.95045975809e-62, No Iterations 50
DILUPBiCGStab:  Solving for ILambda_19_0, Initial residual = 1, Final residual = 5.49763010251e-61, No Iterations 50
DILUPBiCGStab:  Solving for ILambda_20_0, Initial residual = 1, Final residual = 4.23287647189e-61, No Iterations 51
DILUPBiCGStab:  Solving for ILambda_21_0, Initial residual = 1, Final residual = 2.60857122409e-62, No Iterations 51
DILUPBiCGStab:  Solving for ILambda_22_0, Initial residual = 1, Final residual = 8.04128766396e-61, No Iterations 49
DILUPBiCGStab:  Solving for ILambda_23_0, Initial residual = 1, Final residual = 9.96361633045e-61, No Iterations 46
DILUPBiCGStab:  Solving for ILambda_24_0, Initial residual = 1, Final residual = 2.84397170135e-61, No Iterations 79
DILUPBiCGStab:  Solving for ILambda_25_0, Initial residual = 1, Final residual = 5.99499313725e-61, No Iterations 131
DILUPBiCGStab:  Solving for ILambda_26_0, Initial residual = 1, Final residual = 9.24949178409e-61, No Iterations 157
DILUPBiCGStab:  Solving for ILambda_27_0, Initial residual = 1, Final residual = 2.86999034469e-62, No Iterations 171
DILUPBiCGStab:  Solving for ILambda_28_0, Initial residual = 1, Final residual = 4.48984529944e-61, No Iterations 170
DILUPBiCGStab:  Solving for ILambda_29_0, Initial residual = 1, Final residual = 9.90040157056e-62, No Iterations 158
DILUPBiCGStab:  Solving for ILambda_30_0, Initial residual = 1, Final residual = 3.21028940703e-61, No Iterations 133
DILUPBiCGStab:  Solving for ILambda_31_0, Initial residual = 1, Final residual = 2.96555913105e-61, No Iterations 79
DILUPBiCGStab:  Solving for ILambda_32_0, Initial residual = 1, Final residual = 2.02072329855e-71, No Iterations 3
DILUPBiCGStab:  Solving for ILambda_33_0, Initial residual = 1, Final residual = 3.26875751353e-71, No Iterations 3
DILUPBiCGStab:  Solving for ILambda_34_0, Initial residual = 1, Final residual = 2.83242898249e-72, No Iterations 3
DILUPBiCGStab:  Solving for ILambda_35_0, Initial residual = 1, Final residual = 4.86116020704e-70, No Iterations 3
DILUPBiCGStab:  Solving for ILambda_36_0, Initial residual = 1, Final residual = 1.12334653526e-70, No Iterations 3
DILUPBiCGStab:  Solving for ILambda_37_0, Initial residual = 1, Final residual = 9.94892013193e-70, No Iterations 3
DILUPBiCGStab:  Solving for ILambda_38_0, Initial residual = 1, Final residual = 7.00153909802e-70, No Iterations 3
DILUPBiCGStab:  Solving for ILambda_39_0, Initial residual = 1, Final residual = 1.83955233277e-72, No Iterations 3
DILUPBiCGStab:  Solving for ILambda_40_0, Initial residual = 1, Final residual = 3.56397882545e-61, No Iterations 83
DILUPBiCGStab:  Solving for ILambda_41_0, Initial residual = 1, Final residual = 4.6861554976e-61, No Iterations 132
DILUPBiCGStab:  Solving for ILambda_42_0, Initial residual = 1, Final residual = 8.76031645033e-61, No Iterations 161
DILUPBiCGStab:  Solving for ILambda_43_0, Initial residual = 1, Final residual = 5.6093889408e-61, No Iterations 185
DILUPBiCGStab:  Solving for ILambda_44_0, Initial residual = 1, Final residual = 9.98191361592e-61, No Iterations 178
DILUPBiCGStab:  Solving for ILambda_45_0, Initial residual = 1, Final residual = 7.50790880641e-61, No Iterations 160
DILUPBiCGStab:  Solving for ILambda_46_0, Initial residual = 1, Final residual = 2.82866232967e-61, No Iterations 126
DILUPBiCGStab:  Solving for ILambda_47_0, Initial residual = 1, Final residual = 2.75626250976e-61, No Iterations 88
DILUPBiCGStab:  Solving for ILambda_48_0, Initial residual = 1, Final residual = 3.70752396672e-61, No Iterations 61
DILUPBiCGStab:  Solving for ILambda_49_0, Initial residual = 1, Final residual = 1.76562801589e-61, No Iterations 68
DILUPBiCGStab:  Solving for ILambda_50_0, Initial residual = 1, Final residual = 8.14147763163e-62, No Iterations 70
DILUPBiCGStab:  Solving for ILambda_51_0, Initial residual = 1, Final residual = 3.97377092469e-61, No Iterations 71
DILUPBiCGStab:  Solving for ILambda_52_0, Initial residual = 1, Final residual = 3.84338255967e-61, No Iterations 70
DILUPBiCGStab:  Solving for ILambda_53_0, Initial residual = 1, Final residual = 9.19558348671e-61, No Iterations 70
DILUPBiCGStab:  Solving for ILambda_54_0, Initial residual = 1, Final residual = 4.58396769241e-61, No Iterations 68
DILUPBiCGStab:  Solving for ILambda_55_0, Initial residual = 1, Final residual = 7.80361076565e-62, No Iterations 61
DILUPBiCGStab:  Solving for ILambda_56_0, Initial residual = 1, Final residual = 2.87978480804e-61, No Iterations 88
DILUPBiCGStab:  Solving for ILambda_57_0, Initial residual = 1, Final residual = 1.97726621954e-61, No Iterations 128
DILUPBiCGStab:  Solving for ILambda_58_0, Initial residual = 1, Final residual = 6.31546993013e-61, No Iterations 159
DILUPBiCGStab:  Solving for ILambda_59_0, Initial residual = 1, Final residual = 6.65570584476e-61, No Iterations 179
DILUPBiCGStab:  Solving for ILambda_60_0, Initial residual = 1, Final residual = 9.01835990817e-61, No Iterations 181
DILUPBiCGStab:  Solving for ILambda_61_0, Initial residual = 1, Final residual = 3.85622372447e-61, No Iterations 160
DILUPBiCGStab:  Solving for ILambda_62_0, Initial residual = 1, Final residual = 5.15931705986e-61, No Iterations 131
DILUPBiCGStab:  Solving for ILambda_63_0, Initial residual = 1, Final residual = 2.32182377447e-61, No Iterations 83
DILUPBiCGStab:  Solving for ILambda_64_0, Initial residual = 1, Final residual = 1.13889752323e-61, No Iterations 56
DILUPBiCGStab:  Solving for ILambda_65_0, Initial residual = 1, Final residual = 6.26710158781e-61, No Iterations 61
DILUPBiCGStab:  Solving for ILambda_66_0, Initial residual = 1, Final residual = 6.37294009127e-62, No Iterations 63
DILUPBiCGStab:  Solving for ILambda_67_0, Initial residual = 1, Final residual = 8.67518159481e-61, No Iterations 65
DILUPBiCGStab:  Solving for ILambda_68_0, Initial residual = 1, Final residual = 3.46096551581e-61, No Iterations 66
DILUPBiCGStab:  Solving for ILambda_69_0, Initial residual = 1, Final residual = 1.42707823341e-61, No Iterations 64
DILUPBiCGStab:  Solving for ILambda_70_0, Initial residual = 1, Final residual = 1.62523824753e-61, No Iterations 61
DILUPBiCGStab:  Solving for ILambda_71_0, Initial residual = 1, Final residual = 1.56203187879e-61, No Iterations 56
DILUPBiCGStab:  Solving for ILambda_72_0, Initial residual = 1, Final residual = 7.60580272968e-61, No Iterations 84
DILUPBiCGStab:  Solving for ILambda_73_0, Initial residual = 1, Final residual = 8.86615553239e-62, No Iterations 126
DILUPBiCGStab:  Solving for ILambda_74_0, Initial residual = 1, Final residual = 4.23091947527e-61, No Iterations 160
DILUPBiCGStab:  Solving for ILambda_75_0, Initial residual = 1, Final residual = 8.50898619597e-61, No Iterations 178
DILUPBiCGStab:  Solving for ILambda_76_0, Initial residual = 1, Final residual = 6.42848963921e-61, No Iterations 181
DILUPBiCGStab:  Solving for ILambda_77_0, Initial residual = 1, Final residual = 1.1301849522e-61, No Iterations 161
DILUPBiCGStab:  Solving for ILambda_78_0, Initial residual = 1, Final residual = 6.25026448329e-61, No Iterations 131
DILUPBiCGStab:  Solving for ILambda_79_0, Initial residual = 1, Final residual = 8.42683991105e-61, No Iterations 83
DILUPBiCGStab:  Solving for ILambda_80_0, Initial residual = 1, Final residual = 1.81757951421e-70, No Iterations 3
DILUPBiCGStab:  Solving for ILambda_81_0, Initial residual = 1, Final residual = 5.53656791103e-70, No Iterations 3
DILUPBiCGStab:  Solving for ILambda_82_0, Initial residual = 1, Final residual = 9.52268890472e-70, No Iterations 3
DILUPBiCGStab:  Solving for ILambda_83_0, Initial residual = 1, Final residual = 7.22471098254e-69, No Iterations 3
DILUPBiCGStab:  Solving for ILambda_84_0, Initial residual = 1, Final residual = 3.01310396109e-70, No Iterations 3
DILUPBiCGStab:  Solving for ILambda_85_0, Initial residual = 1, Final residual = 4.81634309404e-70, No Iterations 3
DILUPBiCGStab:  Solving for ILambda_86_0, Initial residual = 1, Final residual = 1.8035133418e-71, No Iterations 3
DILUPBiCGStab:  Solving for ILambda_87_0, Initial residual = 1, Final residual = 1.12692242893e-69, No Iterations 3
DILUPBiCGStab:  Solving for ILambda_88_0, Initial residual = 1, Final residual = 9.03049618827e-61, No Iterations 83
DILUPBiCGStab:  Solving for ILambda_89_0, Initial residual = 1, Final residual = 6.74607887162e-61, No Iterations 131
DILUPBiCGStab:  Solving for ILambda_90_0, Initial residual = 1, Final residual = 1.20104672807e-61, No Iterations 160
DILUPBiCGStab:  Solving for ILambda_91_0, Initial residual = 1, Final residual = 9.45454178634e-61, No Iterations 179
DILUPBiCGStab:  Solving for ILambda_92_0, Initial residual = 1, Final residual = 4.59817542956e-61, No Iterations 178
DILUPBiCGStab:  Solving for ILambda_93_0, Initial residual = 1, Final residual = 9.21502833219e-62, No Iterations 161
DILUPBiCGStab:  Solving for ILambda_94_0, Initial residual = 1, Final residual = 4.38422618377e-61, No Iterations 124
DILUPBiCGStab:  Solving for ILambda_95_0, Initial residual = 1, Final residual = 8.30953825282e-61, No Iterations 85
DILUPBiCGStab:  Solving for ILambda_96_0, Initial residual = 1, Final residual = 1.8808436729e-61, No Iterations 45
DILUPBiCGStab:  Solving for ILambda_97_0, Initial residual = 1, Final residual = 3.74500247685e-61, No Iterations 47
DILUPBiCGStab:  Solving for ILambda_98_0, Initial residual = 1, Final residual = 7.3195612608e-62, No Iterations 48
DILUPBiCGStab:  Solving for ILambda_99_0, Initial residual = 1, Final residual = 1.47403829305e-61, No Iterations 48
DILUPBiCGStab:  Solving for ILambda_100_0, Initial residual = 1, Final residual = 1.2441338318e-61, No Iterations 48
DILUPBiCGStab:  Solving for ILambda_101_0, Initial residual = 1, Final residual = 9.5006311573e-61, No Iterations 49
DILUPBiCGStab:  Solving for ILambda_102_0, Initial residual = 1, Final residual = 1.43182938535e-61, No Iterations 47
DILUPBiCGStab:  Solving for ILambda_103_0, Initial residual = 1, Final residual = 9.05192765385e-61, No Iterations 45
DILUPBiCGStab:  Solving for ILambda_104_0, Initial residual = 1, Final residual = 6.22916390251e-61, No Iterations 79
DILUPBiCGStab:  Solving for ILambda_105_0, Initial residual = 1, Final residual = 3.93834707728e-61, No Iterations 129
DILUPBiCGStab:  Solving for ILambda_106_0, Initial residual = 1, Final residual = 1.08949012266e-61, No Iterations 158
DILUPBiCGStab:  Solving for ILambda_107_0, Initial residual = 1, Final residual = 4.08852133858e-61, No Iterations 167
DILUPBiCGStab:  Solving for ILambda_108_0, Initial residual = 1, Final residual = 3.89917017285e-61, No Iterations 170
DILUPBiCGStab:  Solving for ILambda_109_0, Initial residual = 1, Final residual = 8.47193664814e-61, No Iterations 155
DILUPBiCGStab:  Solving for ILambda_110_0, Initial residual = 1, Final residual = 9.19694763098e-61, No Iterations 130
DILUPBiCGStab:  Solving for ILambda_111_0, Initial residual = 1, Final residual = 9.42007370543e-61, No Iterations 79
DILUPBiCGStab:  Solving for ILambda_112_0, Initial residual = 1, Final residual = 3.3299382547e-72, No Iterations 3
DILUPBiCGStab:  Solving for ILambda_113_0, Initial residual = 1, Final residual = 7.63456007219e-71, No Iterations 3
DILUPBiCGStab:  Solving for ILambda_114_0, Initial residual = 1, Final residual = 1.34946379484e-70, No Iterations 3
DILUPBiCGStab:  Solving for ILambda_115_0, Initial residual = 1, Final residual = 1.93102174922e-71, No Iterations 3
DILUPBiCGStab:  Solving for ILambda_116_0, Initial residual = 1, Final residual = 1.08443100499e-71, No Iterations 3
DILUPBiCGStab:  Solving for ILambda_117_0, Initial residual = 1, Final residual = 2.80258640408e-71, No Iterations 3
DILUPBiCGStab:  Solving for ILambda_118_0, Initial residual = 1, Final residual = 7.93008478575e-71, No Iterations 3
DILUPBiCGStab:  Solving for ILambda_119_0, Initial residual = 1, Final residual = 1.09488436383e-71, No Iterations 3
DILUPBiCGStab:  Solving for ILambda_120_0, Initial residual = 1, Final residual = 7.1960005143e-61, No Iterations 79
DILUPBiCGStab:  Solving for ILambda_121_0, Initial residual = 1, Final residual = 5.35811262576e-61, No Iterations 131
DILUPBiCGStab:  Solving for ILambda_122_0, Initial residual = 1, Final residual = 8.40809335611e-61, No Iterations 157
DILUPBiCGStab:  Solving for ILambda_123_0, Initial residual = 1, Final residual = 2.77267422031e-61, No Iterations 167
DILUPBiCGStab:  Solving for ILambda_124_0, Initial residual = 1, Final residual = 4.87851831239e-61, No Iterations 169
DILUPBiCGStab:  Solving for ILambda_125_0, Initial residual = 1, Final residual = 3.91414575991e-62, No Iterations 159
DILUPBiCGStab:  Solving for ILambda_126_0, Initial residual = 1, Final residual = 5.63640971438e-61, No Iterations 130
DILUPBiCGStab:  Solving for ILambda_127_0, Initial residual = 1, Final residual = 2.34860784119e-61, No Iterations 79
Radiation solver iter: 1
DILUPBiCGStab:  Solving for ILambda_0_0, Initial residual = 3.55505174503e-16, Final residual = 5.42455671364e-61, No Iterations 2
DILUPBiCGStab:  Solving for ILambda_1_0, Initial residual = 3.67741441367e-16, Final residual = 4.41389930432e-74, No Iterations 2
DILUPBiCGStab:  Solving for ILambda_2_0, Initial residual = 3.63918313367e-16, Final residual = 1.53761028811e-75, No Iterations 2
DILUPBiCGStab:  Solving for ILambda_3_0, Initial residual = 3.96610663251e-16, Final residual = 5.87220297147e-75, No Iterations 2
DILUPBiCGStab:  Solving for ILambda_4_0, Initial residual = 3.9554921806e-16, Final residual = 4.75926565942e-75, No Iterations 2
DILUPBiCGStab:  Solving for ILambda_5_0, Initial residual = 3.97178487299e-16, Final residual = 4.68364798082e-61, No Iterations 2
DILUPBiCGStab:  Solving for ILambda_6_0, Initial residual = 3.95751824763e-16, Final residual = 3.13406234042e-74, No Iterations 2
DILUPBiCGStab:  Solving for ILambda_7_0, Initial residual = 3.7486643138e-16, Final residual = 2.208277485e-61, No Iterations 2
DILUPBiCGStab:  Solving for ILambda_8_0, Initial residual = 3.84528526089e-15, Final residual = 6.81769544114e-61, No Iterations 53
DILUPBiCGStab:  Solving for ILambda_9_0, Initial residual = 3.28223769409e-14, Final residual = 4.37787354912e-61, No Iterations 84
DILUPBiCGStab:  Solving for ILambda_10_0, Initial residual = 8.36072220194e-13, Final residual = 3.38112177829e-61, No Iterations 107
DILUPBiCGStab:  Solving for ILambda_11_0, Initial residual = 2.97418757928e-12, Final residual = 2.19633744151e-61, No Iterations 120
DILUPBiCGStab:  Solving for ILambda_12_0, Initial residual = 1.05294697152e-12, Final residual = 7.38163884628e-61, No Iterations 118
DILUPBiCGStab:  Solving for ILambda_13_0, Initial residual = 2.5702295783e-13, Final residual = 8.78021970406e-61, No Iterations 108
DILUPBiCGStab:  Solving for ILambda_14_0, Initial residual = 1.2894224624e-14, Final residual = 3.20910288174e-61, No Iterations 91
DILUPBiCGStab:  Solving for ILambda_15_0, Initial residual = 6.21855364938e-15, Final residual = 3.59849375926e-61, No Iterations 56
DILUPBiCGStab:  Solving for ILambda_16_0, Initial residual = 2.67225705323e-15, Final residual = 2.10757963178e-61, No Iterations 29
DILUPBiCGStab:  Solving for ILambda_17_0, Initial residual = 4.20012172492e-15, Final residual = 3.47965401659e-61, No Iterations 31
DILUPBiCGStab:  Solving for ILambda_18_0, Initial residual = 2.64717604346e-14, Final residual = 2.56366491329e-61, No Iterations 34
DILUPBiCGStab:  Solving for ILambda_19_0, Initial residual = 3.83064189233e-14, Final residual = 9.3288168022e-61, No Iterations 34
DILUPBiCGStab:  Solving for ILambda_20_0, Initial residual = 3.81086296142e-14, Final residual = 3.75601172926e-61, No Iterations 31
DILUPBiCGStab:  Solving for ILambda_21_0, Initial residual = 2.29163672187e-14, Final residual = 1.1388372043e-61, No Iterations 33
DILUPBiCGStab:  Solving for ILambda_22_0, Initial residual = 3.77304757673e-15, Final residual = 5.31210163505e-61, No Iterations 33
DILUPBiCGStab:  Solving for ILambda_23_0, Initial residual = 2.42707819443e-15, Final residual = 2.72187490057e-61, No Iterations 30
DILUPBiCGStab:  Solving for ILambda_24_0, Initial residual = 6.22688640575e-15, Final residual = 1.3126445004e-61, No Iterations 55
DILUPBiCGStab:  Solving for ILambda_25_0, Initial residual = 1.16604363459e-14, Final residual = 9.24567511121e-61, No Iterations 89
DILUPBiCGStab:  Solving for ILambda_26_0, Initial residual = 5.3049655652e-13, Final residual = 6.72601453968e-61, No Iterations 107
DILUPBiCGStab:  Solving for ILambda_27_0, Initial residual = 7.28659991609e-13, Final residual = 6.64939012079e-61, No Iterations 120
DILUPBiCGStab:  Solving for ILambda_28_0, Initial residual = 1.94029889119e-12, Final residual = 5.99302598336e-61, No Iterations 115
DILUPBiCGStab:  Solving for ILambda_29_0, Initial residual = 3.88713642038e-12, Final residual = 4.14796478612e-61, No Iterations 112
DILUPBiCGStab:  Solving for ILambda_30_0, Initial residual = 1.90790085235e-14, Final residual = 4.10687380565e-61, No Iterations 87
DILUPBiCGStab:  Solving for ILambda_31_0, Initial residual = 3.8141027577e-15, Final residual = 4.2248154478e-61, No Iterations 54
DILUPBiCGStab:  Solving for ILambda_32_0, Initial residual = 1.53022023552e-15, Final residual = 1.21624642125e-74, No Iterations 2
DILUPBiCGStab:  Solving for ILambda_33_0, Initial residual = 1.5908732851e-15, Final residual = 5.45984671084e-75, No Iterations 2
DILUPBiCGStab:  Solving for ILambda_34_0, Initial residual = 1.60265391393e-15, Final residual = 4.017550315e-75, No Iterations 2
DILUPBiCGStab:  Solving for ILambda_35_0, Initial residual = 1.71170799848e-15, Final residual = 5.48720924339e-74, No Iterations 2
DILUPBiCGStab:  Solving for ILambda_36_0, Initial residual = 1.67118155902e-15, Final residual = 2.26062314802e-74, No Iterations 2
DILUPBiCGStab:  Solving for ILambda_37_0, Initial residual = 1.77032006714e-15, Final residual = 2.24459797778e-74, No Iterations 2
DILUPBiCGStab:  Solving for ILambda_38_0, Initial residual = 1.74035928551e-15, Final residual = 5.80108372183e-75, No Iterations 2
DILUPBiCGStab:  Solving for ILambda_39_0, Initial residual = 1.68201848155e-15, Final residual = 5.78318192367e-75, No Iterations 2
DILUPBiCGStab:  Solving for ILambda_40_0, Initial residual = 1.82607425159e-14, Final residual = 4.25264924848e-61, No Iterations 57
DILUPBiCGStab:  Solving for ILambda_41_0, Initial residual = 6.74902303711e-14, Final residual = 3.75778876247e-61, No Iterations 98
DILUPBiCGStab:  Solving for ILambda_42_0, Initial residual = 4.46122685551e-13, Final residual = 3.8972825708e-61, No Iterations 117
DILUPBiCGStab:  Solving for ILambda_43_0, Initial residual = 7.08503101396e-13, Final residual = 9.51932417379e-61, No Iterations 128
DILUPBiCGStab:  Solving for ILambda_44_0, Initial residual = 1.48371975829e-12, Final residual = 6.23333769895e-61, No Iterations 127
DILUPBiCGStab:  Solving for ILambda_45_0, Initial residual = 1.1277097455e-12, Final residual = 8.32932708418e-62, No Iterations 114
DILUPBiCGStab:  Solving for ILambda_46_0, Initial residual = 4.32919221506e-13, Final residual = 9.0923103205e-62, No Iterations 95
DILUPBiCGStab:  Solving for ILambda_47_0, Initial residual = 1.68369814838e-13, Final residual = 1.44649279002e-61, No Iterations 62
DILUPBiCGStab:  Solving for ILambda_48_0, Initial residual = 3.22902902358e-14, Final residual = 5.18748741092e-61, No Iterations 41
DILUPBiCGStab:  Solving for ILambda_49_0, Initial residual = 1.03350728504e-13, Final residual = 7.0866942539e-61, No Iterations 40
DILUPBiCGStab:  Solving for ILambda_50_0, Initial residual = 9.17339355135e-13, Final residual = 2.51529760988e-62, No Iterations 44
DILUPBiCGStab:  Solving for ILambda_51_0, Initial residual = 5.28304824886e-13, Final residual = 3.81114195799e-61, No Iterations 40
DILUPBiCGStab:  Solving for ILambda_52_0, Initial residual = 4.94614405099e-13, Final residual = 6.98771498803e-61, No Iterations 43
DILUPBiCGStab:  Solving for ILambda_53_0, Initial residual = 8.64220793456e-13, Final residual = 5.82791307462e-61, No Iterations 41
DILUPBiCGStab:  Solving for ILambda_54_0, Initial residual = 9.91421897656e-14, Final residual = 4.67401428086e-61, No Iterations 40
DILUPBiCGStab:  Solving for ILambda_55_0, Initial residual = 3.01901866951e-14, Final residual = 5.8310673185e-61, No Iterations 38
DILUPBiCGStab:  Solving for ILambda_56_0, Initial residual = 1.67419744088e-13, Final residual = 4.71281823143e-61, No Iterations 61
DILUPBiCGStab:  Solving for ILambda_57_0, Initial residual = 2.92699353133e-13, Final residual = 9.12440318177e-61, No Iterations 90
DILUPBiCGStab:  Solving for ILambda_58_0, Initial residual = 7.58385965473e-13, Final residual = 8.96712595549e-61, No Iterations 115
DILUPBiCGStab:  Solving for ILambda_59_0, Initial residual = 1.27412305339e-12, Final residual = 6.10817615787e-61, No Iterations 130
DILUPBiCGStab:  Solving for ILambda_60_0, Initial residual = 1.29050901724e-12, Final residual = 9.6596202468e-61, No Iterations 130
DILUPBiCGStab:  Solving for ILambda_61_0, Initial residual = 1.05481110028e-09, Final residual = 5.64873214783e-61, No Iterations 110
DILUPBiCGStab:  Solving for ILambda_62_0, Initial residual = 7.20777633171e-14, Final residual = 4.89563616165e-61, No Iterations 95
DILUPBiCGStab:  Solving for ILambda_63_0, Initial residual = 1.81334363329e-14, Final residual = 3.29543908604e-61, No Iterations 58
DILUPBiCGStab:  Solving for ILambda_64_0, Initial residual = 5.73256498567e-14, Final residual = 7.98386527542e-61, No Iterations 40
DILUPBiCGStab:  Solving for ILambda_65_0, Initial residual = 2.64499345082e-14, Final residual = 6.53611170397e-61, No Iterations 38
DILUPBiCGStab:  Solving for ILambda_66_0, Initial residual = 2.61031850934e-14, Final residual = 2.76095651427e-61, No Iterations 39
DILUPBiCGStab:  Solving for ILambda_67_0, Initial residual = 2.76263015651e-14, Final residual = 1.54559284003e-61, No Iterations 44
DILUPBiCGStab:  Solving for ILambda_68_0, Initial residual = 2.85696794641e-14, Final residual = 9.08593670548e-61, No Iterations 41
DILUPBiCGStab:  Solving for ILambda_69_0, Initial residual = 2.73262822947e-14, Final residual = 6.80781959698e-62, No Iterations 40
DILUPBiCGStab:  Solving for ILambda_70_0, Initial residual = 2.77459840063e-14, Final residual = 2.28856528311e-61, No Iterations 40
DILUPBiCGStab:  Solving for ILambda_71_0, Initial residual = 6.0974454756e-14, Final residual = 4.04248934511e-61, No Iterations 41
DILUPBiCGStab:  Solving for ILambda_72_0, Initial residual = 8.40817072054e-13, Final residual = 8.60937249048e-62, No Iterations 63
DILUPBiCGStab:  Solving for ILambda_73_0, Initial residual = 1.01429265046e-13, Final residual = 4.30552723042e-62, No Iterations 93
DILUPBiCGStab:  Solving for ILambda_74_0, Initial residual = 8.93933369761e-13, Final residual = 2.73886941204e-61, No Iterations 109
DILUPBiCGStab:  Solving for ILambda_75_0, Initial residual = 7.00149583895e-13, Final residual = 7.20900496298e-61, No Iterations 130
DILUPBiCGStab:  Solving for ILambda_76_0, Initial residual = 1.0781693896e-11, Final residual = 5.37097010591e-61, No Iterations 123
DILUPBiCGStab:  Solving for ILambda_77_0, Initial residual = 4.29418152061e-12, Final residual = 4.5042678109e-61, No Iterations 114
DILUPBiCGStab:  Solving for ILambda_78_0, Initial residual = 3.65744291209e-14, Final residual = 9.06264816159e-61, No Iterations 97
DILUPBiCGStab:  Solving for ILambda_79_0, Initial residual = 1.59126129549e-14, Final residual = 4.99676535783e-61, No Iterations 59
DILUPBiCGStab:  Solving for ILambda_80_0, Initial residual = 1.61735995156e-15, Final residual = 7.96170985074e-72, No Iterations 2
DILUPBiCGStab:  Solving for ILambda_81_0, Initial residual = 1.7654444088e-15, Final residual = 4.57079967106e-72, No Iterations 2
DILUPBiCGStab:  Solving for ILambda_82_0, Initial residual = 1.75936239425e-15, Final residual = 1.04559034605e-73, No Iterations 2
DILUPBiCGStab:  Solving for ILambda_83_0, Initial residual = 1.75181293504e-15, Final residual = 2.57017067732e-72, No Iterations 2
DILUPBiCGStab:  Solving for ILambda_84_0, Initial residual = 1.68686459892e-15, Final residual = 3.21747680227e-72, No Iterations 2
DILUPBiCGStab:  Solving for ILambda_85_0, Initial residual = 1.57266275217e-15, Final residual = 1.34027685994e-74, No Iterations 2
DILUPBiCGStab:  Solving for ILambda_86_0, Initial residual = 1.53708940847e-15, Final residual = 9.80948370103e-61, No Iterations 2
DILUPBiCGStab:  Solving for ILambda_87_0, Initial residual = 1.44328278625e-15, Final residual = 7.37843527503e-72, No Iterations 2
DILUPBiCGStab:  Solving for ILambda_88_0, Initial residual = 1.71016839731e-14, Final residual = 9.19764912676e-61, No Iterations 58
DILUPBiCGStab:  Solving for ILambda_89_0, Initial residual = 3.59843616003e-14, Final residual = 7.02745101605e-61, No Iterations 100
DILUPBiCGStab:  Solving for ILambda_90_0, Initial residual = 4.71047359821e-13, Final residual = 5.29543459567e-62, No Iterations 118
DILUPBiCGStab:  Solving for ILambda_91_0, Initial residual = 1.01297228738e-12, Final residual = 8.95732687238e-61, No Iterations 133
DILUPBiCGStab:  Solving for ILambda_92_0, Initial residual = 6.60413618694e-13, Final residual = 2.02458530238e-61, No Iterations 129
DILUPBiCGStab:  Solving for ILambda_93_0, Initial residual = 1.64559975579e-12, Final residual = 4.38783923472e-62, No Iterations 111
DILUPBiCGStab:  Solving for ILambda_94_0, Initial residual = 1.11434789812e-13, Final residual = 1.29242694798e-61, No Iterations 94
DILUPBiCGStab:  Solving for ILambda_95_0, Initial residual = 8.77038809393e-13, Final residual = 7.67107460143e-62, No Iterations 63
DILUPBiCGStab:  Solving for ILambda_96_0, Initial residual = 1.56138891046e-13, Final residual = 7.62371510138e-62, No Iterations 30
DILUPBiCGStab:  Solving for ILambda_97_0, Initial residual = 4.31041938933e-15, Final residual = 1.75301746322e-61, No Iterations 30
DILUPBiCGStab:  Solving for ILambda_98_0, Initial residual = 8.06246652128e-15, Final residual = 9.8635143954e-61, No Iterations 31
DILUPBiCGStab:  Solving for ILambda_99_0, Initial residual = 6.29499811148e-15, Final residual = 5.96466850683e-61, No Iterations 32
DILUPBiCGStab:  Solving for ILambda_100_0, Initial residual = 6.45544147406e-15, Final residual = 2.63504745249e-61, No Iterations 31
DILUPBiCGStab:  Solving for ILambda_101_0, Initial residual = 8.63778721154e-15, Final residual = 4.53621904366e-61, No Iterations 34
DILUPBiCGStab:  Solving for ILambda_102_0, Initial residual = 4.53447021215e-15, Final residual = 4.55078182823e-61, No Iterations 30
DILUPBiCGStab:  Solving for ILambda_103_0, Initial residual = 1.71463429251e-13, Final residual = 4.35829578289e-61, No Iterations 28
DILUPBiCGStab:  Solving for ILambda_104_0, Initial residual = 3.56440999503e-15, Final residual = 5.237578935e-61, No Iterations 56
DILUPBiCGStab:  Solving for ILambda_105_0, Initial residual = 1.07103678847e-14, Final residual = 9.29352300376e-61, No Iterations 93
DILUPBiCGStab:  Solving for ILambda_106_0, Initial residual = 6.49855060283e-12, Final residual = 1.85622771777e-61, No Iterations 115
DILUPBiCGStab:  Solving for ILambda_107_0, Initial residual = 6.00793645165e-13, Final residual = 5.29303904888e-61, No Iterations 121
DILUPBiCGStab:  Solving for ILambda_108_0, Initial residual = 2.38422869981e-12, Final residual = 5.21057734477e-61, No Iterations 121
DILUPBiCGStab:  Solving for ILambda_109_0, Initial residual = 7.1819503328e-13, Final residual = 9.04288147871e-61, No Iterations 103
DILUPBiCGStab:  Solving for ILambda_110_0, Initial residual = 5.09032723241e-14, Final residual = 7.51778939649e-61, No Iterations 86
DILUPBiCGStab:  Solving for ILambda_111_0, Initial residual = 2.28483672875e-15, Final residual = 2.86842734885e-61, No Iterations 56
DILUPBiCGStab:  Solving for ILambda_112_0, Initial residual = 3.69856691576e-16, Final residual = 8.48057619253e-61, No Iterations 2
DILUPBiCGStab:  Solving for ILambda_113_0, Initial residual = 4.01242903543e-16, Final residual = 1.32838607739e-74, No Iterations 2
DILUPBiCGStab:  Solving for ILambda_114_0, Initial residual = 3.96366278577e-16, Final residual = 6.13533396059e-76, No Iterations 2
DILUPBiCGStab:  Solving for ILambda_115_0, Initial residual = 3.91198161163e-16, Final residual = 5.16441465886e-73, No Iterations 2
DILUPBiCGStab:  Solving for ILambda_116_0, Initial residual = 3.88281425563e-16, Final residual = 2.81431242853e-75, No Iterations 2
DILUPBiCGStab:  Solving for ILambda_117_0, Initial residual = 3.58839774812e-16, Final residual = 2.06162768674e-72, No Iterations 2
DILUPBiCGStab:  Solving for ILambda_118_0, Initial residual = 3.7976796061e-16, Final residual = 1.81398697375e-74, No Iterations 2
DILUPBiCGStab:  Solving for ILambda_119_0, Initial residual = 3.67766826295e-16, Final residual = 6.112423993e-61, No Iterations 2
DILUPBiCGStab:  Solving for ILambda_120_0, Initial residual = 2.28105924528e-15, Final residual = 1.57928006118e-61, No Iterations 56
DILUPBiCGStab:  Solving for ILambda_121_0, Initial residual = 2.61351004482e-14, Final residual = 7.25644594112e-61, No Iterations 89
DILUPBiCGStab:  Solving for ILambda_122_0, Initial residual = 8.18654776717e-13, Final residual = 4.27459359051e-61, No Iterations 111
DILUPBiCGStab:  Solving for ILambda_123_0, Initial residual = 1.10306832681e-12, Final residual = 5.85070203647e-61, No Iterations 120
DILUPBiCGStab:  Solving for ILambda_124_0, Initial residual = 5.95632722156e-13, Final residual = 6.8305956806e-61, No Iterations 124
DILUPBiCGStab:  Solving for ILambda_125_0, Initial residual = 6.48506552027e-12, Final residual = 5.09438672855e-61, No Iterations 113
DILUPBiCGStab:  Solving for ILambda_126_0, Initial residual = 1.07150025868e-14, Final residual = 4.06456086655e-61, No Iterations 90
DILUPBiCGStab:  Solving for ILambda_127_0, Initial residual = 3.48844913983e-15, Final residual = 2.08840552774e-61, No Iterations 58
Radiation solver iter: 2
DILUPBiCGStab:  Solving for ILambda_61_0, Initial residual = 4.56308237944e-15, Final residual = 6.40484083154e-61, No Iterations 117
min/max(T) = 1000, 1000
PIMPLE: iteration 2
Radiation solver iter: 0
DILUPBiCGStab:  Solving for ILambda_0_0, Initial residual = 3.45546194876e-16, Final residual = 8.38471856704e-61, No Iterations 2
DILUPBiCGStab:  Solving for ILambda_1_0, Initial residual = 3.619439961e-16, Final residual = 6.53626005955e-61, No Iterations 2
DILUPBiCGStab:  Solving for ILambda_2_0, Initial residual = 3.55949560734e-16, Final residual = 9.12525918872e-61, No Iterations 2
DILUPBiCGStab:  Solving for ILambda_3_0, Initial residual = 3.84260609037e-16, Final residual = 2.51472235959e-75, No Iterations 2
DILUPBiCGStab:  Solving for ILambda_4_0, Initial residual = 3.82236068975e-16, Final residual = 5.18213934899e-61, No Iterations 2
DILUPBiCGStab:  Solving for ILambda_5_0, Initial residual = 3.80059933719e-16, Final residual = 6.42468412623e-61, No Iterations 2
DILUPBiCGStab:  Solving for ILambda_6_0, Initial residual = 3.91784258425e-16, Final residual = 9.06293368446e-61, No Iterations 2
DILUPBiCGStab:  Solving for ILambda_7_0, Initial residual = 3.7195129711e-16, Final residual = 1.09380613321e-61, No Iterations 2
DILUPBiCGStab:  Solving for ILambda_8_0, Initial residual = 5.10196983324e-16, Final residual = 4.22148473833e-61, No Iterations 57
DILUPBiCGStab:  Solving for ILambda_9_0, Initial residual = 6.94993661575e-16, Final residual = 4.4399107769e-61, No Iterations 91
DILUPBiCGStab:  Solving for ILambda_10_0, Initial residual = 9.76205767007e-16, Final residual = 3.99679592102e-61, No Iterations 112
DILUPBiCGStab:  Solving for ILambda_11_0, Initial residual = 9.64362864241e-16, Final residual = 5.98508122219e-61, No Iterations 125
DILUPBiCGStab:  Solving for ILambda_12_0, Initial residual = 9.90125915621e-16, Final residual = 5.70132772219e-61, No Iterations 122
DILUPBiCGStab:  Solving for ILambda_13_0, Initial residual = 1.00144027604e-15, Final residual = 1.18996944838e-61, No Iterations 112
DILUPBiCGStab:  Solving for ILambda_14_0, Initial residual = 8.65262952679e-16, Final residual = 9.08448758374e-61, No Iterations 90
DILUPBiCGStab:  Solving for ILambda_15_0, Initial residual = 5.7757228187e-16, Final residual = 6.16679882563e-61, No Iterations 56
DILUPBiCGStab:  Solving for ILambda_16_0, Initial residual = 3.82550904188e-16, Final residual = 2.60239455653e-61, No Iterations 29
DILUPBiCGStab:  Solving for ILambda_17_0, Initial residual = 4.2203936869e-16, Final residual = 1.71366398327e-61, No Iterations 29
DILUPBiCGStab:  Solving for ILambda_18_0, Initial residual = 5.14523648494e-16, Final residual = 9.91143905017e-62, No Iterations 30
DILUPBiCGStab:  Solving for ILambda_19_0, Initial residual = 4.78893759003e-16, Final residual = 8.29972638942e-61, No Iterations 31
DILUPBiCGStab:  Solving for ILambda_20_0, Initial residual = 4.70009715039e-16, Final residual = 1.73077566283e-61, No Iterations 29
DILUPBiCGStab:  Solving for ILambda_21_0, Initial residual = 5.5184603186e-16, Final residual = 1.79532302667e-61, No Iterations 30
DILUPBiCGStab:  Solving for ILambda_22_0, Initial residual = 3.801297894e-16, Final residual = 1.45773019727e-61, No Iterations 31
DILUPBiCGStab:  Solving for ILambda_23_0, Initial residual = 3.6587377584e-16, Final residual = 4.42772658549e-61, No Iterations 28
DILUPBiCGStab:  Solving for ILambda_24_0, Initial residual = 5.50545717684e-16, Final residual = 2.85553298162e-61, No Iterations 56
DILUPBiCGStab:  Solving for ILambda_25_0, Initial residual = 8.23429868083e-16, Final residual = 6.74439066137e-61, No Iterations 93
DILUPBiCGStab:  Solving for ILambda_26_0, Initial residual = 1.00213579219e-15, Final residual = 6.74405458247e-61, No Iterations 108
DILUPBiCGStab:  Solving for ILambda_27_0, Initial residual = 9.79286366694e-16, Final residual = 9.61504247975e-61, No Iterations 126
DILUPBiCGStab:  Solving for ILambda_28_0, Initial residual = 9.56730313817e-16, Final residual = 5.3992645206e-61, No Iterations 128
DILUPBiCGStab:  Solving for ILambda_29_0, Initial residual = 9.9800413869e-16, Final residual = 9.54718450551e-61, No Iterations 112
DILUPBiCGStab:  Solving for ILambda_30_0, Initial residual = 7.24745229359e-16, Final residual = 1.12060748172e-61, No Iterations 93
DILUPBiCGStab:  Solving for ILambda_31_0, Initial residual = 5.29769358118e-16, Final residual = 8.95050889149e-61, No Iterations 55
DILUPBiCGStab:  Solving for ILambda_32_0, Initial residual = 1.48684387017e-15, Final residual = 7.55077911268e-75, No Iterations 2
DILUPBiCGStab:  Solving for ILambda_33_0, Initial residual = 1.55160057785e-15, Final residual = 8.98818686973e-75, No Iterations 2
DILUPBiCGStab:  Solving for ILambda_34_0, Initial residual = 1.55634009395e-15, Final residual = 1.93573668918e-75, No Iterations 2
DILUPBiCGStab:  Solving for ILambda_35_0, Initial residual = 1.62439221584e-15, Final residual = 2.64626998314e-75, No Iterations 2
DILUPBiCGStab:  Solving for ILambda_36_0, Initial residual = 1.64689928343e-15, Final residual = 3.91423032216e-75, No Iterations 2
DILUPBiCGStab:  Solving for ILambda_37_0, Initial residual = 1.76628677724e-15, Final residual = 6.46256375998e-75, No Iterations 2
DILUPBiCGStab:  Solving for ILambda_38_0, Initial residual = 1.74495924958e-15, Final residual = 4.152331633e-75, No Iterations 2
DILUPBiCGStab:  Solving for ILambda_39_0, Initial residual = 1.63104512697e-15, Final residual = 5.59553981985e-75, No Iterations 2
DILUPBiCGStab:  Solving for ILambda_40_0, Initial residual = 2.40937880434e-15, Final residual = 5.95312147227e-61, No Iterations 59
DILUPBiCGStab:  Solving for ILambda_41_0, Initial residual = 3.98941612292e-15, Final residual = 4.62861439261e-61, No Iterations 97
DILUPBiCGStab:  Solving for ILambda_42_0, Initial residual = 4.66963410894e-15, Final residual = 3.83998732604e-61, No Iterations 121
DILUPBiCGStab:  Solving for ILambda_43_0, Initial residual = 4.69584730655e-15, Final residual = 2.65224633365e-61, No Iterations 134
DILUPBiCGStab:  Solving for ILambda_44_0, Initial residual = 4.89665793962e-15, Final residual = 4.29517381736e-61, No Iterations 135
DILUPBiCGStab:  Solving for ILambda_45_0, Initial residual = 4.91960969352e-15, Final residual = 9.63749122638e-61, No Iterations 110
DILUPBiCGStab:  Solving for ILambda_46_0, Initial residual = 4.0647235002e-15, Final residual = 4.45523257401e-61, No Iterations 94
DILUPBiCGStab:  Solving for ILambda_47_0, Initial residual = 2.95649858485e-15, Final residual = 5.31622469238e-61, No Iterations 61
DILUPBiCGStab:  Solving for ILambda_48_0, Initial residual = 1.95952339737e-15, Final residual = 4.98843727345e-61, No Iterations 38
DILUPBiCGStab:  Solving for ILambda_49_0, Initial residual = 2.02401887322e-15, Final residual = 4.9829108508e-61, No Iterations 38
DILUPBiCGStab:  Solving for ILambda_50_0, Initial residual = 3.17052880739e-15, Final residual = 3.26968843031e-61, No Iterations 38
DILUPBiCGStab:  Solving for ILambda_51_0, Initial residual = 3.06501666746e-15, Final residual = 1.28622641033e-61, No Iterations 39
DILUPBiCGStab:  Solving for ILambda_52_0, Initial residual = 3.23217566922e-15, Final residual = 7.11183543158e-61, No Iterations 43
DILUPBiCGStab:  Solving for ILambda_53_0, Initial residual = 3.05976655825e-15, Final residual = 2.71100173515e-61, No Iterations 37
DILUPBiCGStab:  Solving for ILambda_54_0, Initial residual = 2.03675585966e-15, Final residual = 1.60349171286e-61, No Iterations 40
DILUPBiCGStab:  Solving for ILambda_55_0, Initial residual = 1.63210000751e-15, Final residual = 1.31400410035e-61, No Iterations 38
DILUPBiCGStab:  Solving for ILambda_56_0, Initial residual = 3.01679606489e-15, Final residual = 8.60137214152e-61, No Iterations 60
DILUPBiCGStab:  Solving for ILambda_57_0, Initial residual = 4.06354350882e-15, Final residual = 8.39907823041e-61, No Iterations 90
DILUPBiCGStab:  Solving for ILambda_58_0, Initial residual = 4.83348970312e-15, Final residual = 6.95298336189e-61, No Iterations 118
DILUPBiCGStab:  Solving for ILambda_59_0, Initial residual = 5.36356120797e-15, Final residual = 9.285364323e-61, No Iterations 132
DILUPBiCGStab:  Solving for ILambda_60_0, Initial residual = 4.84964606208e-15, Final residual = 7.21172355638e-61, No Iterations 128
DILUPBiCGStab:  Solving for ILambda_61_0, Initial residual = 4.45975809129e-15, Final residual = 4.07626449094e-61, No Iterations 120
DILUPBiCGStab:  Solving for ILambda_62_0, Initial residual = 3.79849071272e-15, Final residual = 8.55946893756e-61, No Iterations 95
DILUPBiCGStab:  Solving for ILambda_63_0, Initial residual = 2.58038365811e-15, Final residual = 5.50187172123e-61, No Iterations 59
DILUPBiCGStab:  Solving for ILambda_64_0, Initial residual = 1.70944869498e-15, Final residual = 3.28796050762e-61, No Iterations 37
DILUPBiCGStab:  Solving for ILambda_65_0, Initial residual = 1.68351360291e-15, Final residual = 5.38592934872e-61, No Iterations 37
DILUPBiCGStab:  Solving for ILambda_66_0, Initial residual = 1.6874582381e-15, Final residual = 1.04580781516e-61, No Iterations 38
DILUPBiCGStab:  Solving for ILambda_67_0, Initial residual = 2.01006324572e-15, Final residual = 6.09432995752e-61, No Iterations 38
DILUPBiCGStab:  Solving for ILambda_68_0, Initial residual = 2.17058952956e-15, Final residual = 4.01191628618e-61, No Iterations 40
DILUPBiCGStab:  Solving for ILambda_69_0, Initial residual = 2.24860226161e-15, Final residual = 7.28346710195e-62, No Iterations 37
DILUPBiCGStab:  Solving for ILambda_70_0, Initial residual = 2.07134691111e-15, Final residual = 1.12851512449e-61, No Iterations 38
DILUPBiCGStab:  Solving for ILambda_71_0, Initial residual = 1.81767237725e-15, Final residual = 8.30479521165e-61, No Iterations 36
DILUPBiCGStab:  Solving for ILambda_72_0, Initial residual = 2.85291764842e-15, Final residual = 8.96722423627e-61, No Iterations 64
DILUPBiCGStab:  Solving for ILambda_73_0, Initial residual = 3.6682876899e-15, Final residual = 5.62124778069e-61, No Iterations 93
DILUPBiCGStab:  Solving for ILambda_74_0, Initial residual = 4.02072585079e-15, Final residual = 4.09878152483e-61, No Iterations 116
DILUPBiCGStab:  Solving for ILambda_75_0, Initial residual = 4.98589010747e-15, Final residual = 2.73035475536e-61, No Iterations 125
DILUPBiCGStab:  Solving for ILambda_76_0, Initial residual = 4.2376759691e-15, Final residual = 5.28285246954e-61, No Iterations 131
DILUPBiCGStab:  Solving for ILambda_77_0, Initial residual = 4.44092995498e-15, Final residual = 4.7652103424e-61, No Iterations 122
DILUPBiCGStab:  Solving for ILambda_78_0, Initial residual = 3.3538757804e-15, Final residual = 2.69053498562e-61, No Iterations 96
DILUPBiCGStab:  Solving for ILambda_79_0, Initial residual = 2.19165297327e-15, Final residual = 8.7149934628e-61, No Iterations 58
DILUPBiCGStab:  Solving for ILambda_80_0, Initial residual = 1.60145349032e-15, Final residual = 1.95678846094e-74, No Iterations 2
DILUPBiCGStab:  Solving for ILambda_81_0, Initial residual = 1.73697016031e-15, Final residual = 8.73928942819e-75, No Iterations 2
DILUPBiCGStab:  Solving for ILambda_82_0, Initial residual = 1.73825113903e-15, Final residual = 1.84877898991e-71, No Iterations 2
DILUPBiCGStab:  Solving for ILambda_83_0, Initial residual = 1.7070489525e-15, Final residual = 4.30598545982e-72, No Iterations 2
DILUPBiCGStab:  Solving for ILambda_84_0, Initial residual = 1.65088060845e-15, Final residual = 3.23880394812e-72, No Iterations 2
DILUPBiCGStab:  Solving for ILambda_85_0, Initial residual = 1.54580098154e-15, Final residual = 2.9354890083e-73, No Iterations 2
DILUPBiCGStab:  Solving for ILambda_86_0, Initial residual = 1.52622130383e-15, Final residual = 4.78612125324e-74, No Iterations 2
DILUPBiCGStab:  Solving for ILambda_87_0, Initial residual = 1.46130341156e-15, Final residual = 1.90837655353e-74, No Iterations 2
DILUPBiCGStab:  Solving for ILambda_88_0, Initial residual = 2.21576827505e-15, Final residual = 5.53842540834e-61, No Iterations 59
DILUPBiCGStab:  Solving for ILambda_89_0, Initial residual = 3.57283505486e-15, Final residual = 6.49727670949e-61, No Iterations 98
DILUPBiCGStab:  Solving for ILambda_90_0, Initial residual = 4.51918293428e-15, Final residual = 9.84825113895e-61, No Iterations 122
DILUPBiCGStab:  Solving for ILambda_91_0, Initial residual = 4.53595522888e-15, Final residual = 5.71081691513e-61, No Iterations 132
DILUPBiCGStab:  Solving for ILambda_92_0, Initial residual = 4.80816212307e-15, Final residual = 9.06462048037e-61, No Iterations 132
DILUPBiCGStab:  Solving for ILambda_93_0, Initial residual = 3.90774095613e-15, Final residual = 5.60782472536e-61, No Iterations 116
DILUPBiCGStab:  Solving for ILambda_94_0, Initial residual = 3.73678041379e-15, Final residual = 7.56338021941e-61, No Iterations 91
DILUPBiCGStab:  Solving for ILambda_95_0, Initial residual = 2.88314581227e-15, Final residual = 4.95977459096e-61, No Iterations 63
DILUPBiCGStab:  Solving for ILambda_96_0, Initial residual = 4.57296820249e-16, Final residual = 2.91607020946e-61, No Iterations 29
DILUPBiCGStab:  Solving for ILambda_97_0, Initial residual = 4.01312902627e-16, Final residual = 6.43494293946e-61, No Iterations 29
DILUPBiCGStab:  Solving for ILambda_98_0, Initial residual = 4.06905252888e-16, Final residual = 9.46379077295e-61, No Iterations 30
DILUPBiCGStab:  Solving for ILambda_99_0, Initial residual = 4.24092706132e-16, Final residual = 1.679376756e-61, No Iterations 29
DILUPBiCGStab:  Solving for ILambda_100_0, Initial residual = 4.08374436966e-16, Final residual = 8.46751526452e-62, No Iterations 31
DILUPBiCGStab:  Solving for ILambda_101_0, Initial residual = 4.25678242873e-16, Final residual = 6.59066782205e-61, No Iterations 29
DILUPBiCGStab:  Solving for ILambda_102_0, Initial residual = 4.20332186668e-16, Final residual = 1.72480118259e-61, No Iterations 28
DILUPBiCGStab:  Solving for ILambda_103_0, Initial residual = 5.29251438196e-16, Final residual = 3.65311604938e-61, No Iterations 28
DILUPBiCGStab:  Solving for ILambda_104_0, Initial residual = 4.57560853745e-16, Final residual = 7.93592959208e-61, No Iterations 56
DILUPBiCGStab:  Solving for ILambda_105_0, Initial residual = 8.27480517675e-16, Final residual = 3.39593337049e-61, No Iterations 91
DILUPBiCGStab:  Solving for ILambda_106_0, Initial residual = 1.13042444268e-15, Final residual = 5.00176589476e-61, No Iterations 114
DILUPBiCGStab:  Solving for ILambda_107_0, Initial residual = 9.95826059538e-16, Final residual = 4.69131394412e-61, No Iterations 128
DILUPBiCGStab:  Solving for ILambda_108_0, Initial residual = 9.86096277184e-16, Final residual = 9.97071362662e-61, No Iterations 125
DILUPBiCGStab:  Solving for ILambda_109_0, Initial residual = 8.35182655565e-16, Final residual = 7.58832361211e-61, No Iterations 113
DILUPBiCGStab:  Solving for ILambda_110_0, Initial residual = 7.66061413787e-16, Final residual = 9.1209862816e-61, No Iterations 89
DILUPBiCGStab:  Solving for ILambda_111_0, Initial residual = 4.70285414609e-16, Final residual = 6.97771560359e-61, No Iterations 54
DILUPBiCGStab:  Solving for ILambda_112_0, Initial residual = 3.68418100064e-16, Final residual = 5.73357568513e-61, No Iterations 2
DILUPBiCGStab:  Solving for ILambda_113_0, Initial residual = 3.99906627168e-16, Final residual = 1.20988374223e-72, No Iterations 2
DILUPBiCGStab:  Solving for ILambda_114_0, Initial residual = 3.82163738272e-16, Final residual = 1.3184541541e-72, No Iterations 2
DILUPBiCGStab:  Solving for ILambda_115_0, Initial residual = 3.82470168497e-16, Final residual = 1.0697875797e-75, No Iterations 2
DILUPBiCGStab:  Solving for ILambda_116_0, Initial residual = 3.77700991951e-16, Final residual = 7.34833408108e-61, No Iterations 2
DILUPBiCGStab:  Solving for ILambda_117_0, Initial residual = 3.50300415058e-16, Final residual = 5.01168415906e-73, No Iterations 2
DILUPBiCGStab:  Solving for ILambda_118_0, Initial residual = 3.66253198017e-16, Final residual = 3.60161183249e-75, No Iterations 2
DILUPBiCGStab:  Solving for ILambda_119_0, Initial residual = 3.57525837384e-16, Final residual = 5.93758334551e-73, No Iterations 2
DILUPBiCGStab:  Solving for ILambda_120_0, Initial residual = 4.45950069417e-16, Final residual = 2.89958560136e-61, No Iterations 58
DILUPBiCGStab:  Solving for ILambda_121_0, Initial residual = 7.49460225111e-16, Final residual = 3.12731944987e-62, No Iterations 90
DILUPBiCGStab:  Solving for ILambda_122_0, Initial residual = 8.4269228336e-16, Final residual = 3.65560433495e-61, No Iterations 112
DILUPBiCGStab:  Solving for ILambda_123_0, Initial residual = 1.03222127305e-15, Final residual = 4.26805658501e-61, No Iterations 131
DILUPBiCGStab:  Solving for ILambda_124_0, Initial residual = 9.70613270693e-16, Final residual = 9.11484811926e-61, No Iterations 126
DILUPBiCGStab:  Solving for ILambda_125_0, Initial residual = 1.09776647226e-15, Final residual = 2.0713151288e-61, No Iterations 113
DILUPBiCGStab:  Solving for ILambda_126_0, Initial residual = 7.6665681629e-16, Final residual = 5.61922723681e-61, No Iterations 92
DILUPBiCGStab:  Solving for ILambda_127_0, Initial residual = 4.88859345778e-16, Final residual = 8.7983738317e-61, No Iterations 58
min/max(T) = 1000, 1000
PIMPLE: iteration 3
Radiation solver iter: 0
DILUPBiCGStab:  Solving for ILambda_0_0, Initial residual = 3.41510005056e-16, Final residual = 2.76062199893e-74, No Iterations 2
DILUPBiCGStab:  Solving for ILambda_1_0, Initial residual = 3.57904056567e-16, Final residual = 8.04823918624e-61, No Iterations 2
DILUPBiCGStab:  Solving for ILambda_2_0, Initial residual = 3.47045132348e-16, Final residual = 5.82897740475e-74, No Iterations 2
DILUPBiCGStab:  Solving for ILambda_3_0, Initial residual = 3.75232224991e-16, Final residual = 1.51716417201e-75, No Iterations 2
DILUPBiCGStab:  Solving for ILambda_4_0, Initial residual = 3.77388602548e-16, Final residual = 6.34016655781e-61, No Iterations 2
DILUPBiCGStab:  Solving for ILambda_5_0, Initial residual = 3.77005619208e-16, Final residual = 7.46437132107e-61, No Iterations 2
DILUPBiCGStab:  Solving for ILambda_6_0, Initial residual = 3.91220452306e-16, Final residual = 7.59648197656e-61, No Iterations 2
DILUPBiCGStab:  Solving for ILambda_7_0, Initial residual = 3.68876287471e-16, Final residual = 2.74426651512e-61, No Iterations 2
DILUPBiCGStab:  Solving for ILambda_8_0, Initial residual = 3.87856882007e-16, Final residual = 4.50079157641e-61, No Iterations 58
DILUPBiCGStab:  Solving for ILambda_9_0, Initial residual = 5.70800349188e-16, Final residual = 3.36608906249e-61, No Iterations 91
DILUPBiCGStab:  Solving for ILambda_10_0, Initial residual = 8.59933342634e-16, Final residual = 6.15296970215e-61, No Iterations 111
DILUPBiCGStab:  Solving for ILambda_11_0, Initial residual = 8.11459639695e-16, Final residual = 8.13140698485e-61, No Iterations 124
DILUPBiCGStab:  Solving for ILambda_12_0, Initial residual = 8.29999095804e-16, Final residual = 7.16080723075e-61, No Iterations 124
DILUPBiCGStab:  Solving for ILambda_13_0, Initial residual = 9.12163863123e-16, Final residual = 7.90828647929e-61, No Iterations 109
DILUPBiCGStab:  Solving for ILambda_14_0, Initial residual = 6.05098792849e-16, Final residual = 3.2608770329e-61, No Iterations 94
DILUPBiCGStab:  Solving for ILambda_15_0, Initial residual = 4.27703162684e-16, Final residual = 5.51385051608e-61, No Iterations 57
DILUPBiCGStab:  Solving for ILambda_16_0, Initial residual = 3.65491998145e-16, Final residual = 2.95302048839e-61, No Iterations 29
DILUPBiCGStab:  Solving for ILambda_17_0, Initial residual = 3.86199410246e-16, Final residual = 3.0787611462e-61, No Iterations 31
DILUPBiCGStab:  Solving for ILambda_18_0, Initial residual = 3.89997838467e-16, Final residual = 9.72036757251e-61, No Iterations 30
DILUPBiCGStab:  Solving for ILambda_19_0, Initial residual = 3.86345391491e-16, Final residual = 2.68014652664e-61, No Iterations 30
DILUPBiCGStab:  Solving for ILambda_20_0, Initial residual = 3.84067474875e-16, Final residual = 6.06446013672e-61, No Iterations 29
DILUPBiCGStab:  Solving for ILambda_21_0, Initial residual = 3.67832162134e-16, Final residual = 8.8676986564e-61, No Iterations 28
DILUPBiCGStab:  Solving for ILambda_22_0, Initial residual = 3.61762748425e-16, Final residual = 2.17687897759e-61, No Iterations 30
DILUPBiCGStab:  Solving for ILambda_23_0, Initial residual = 3.49033532287e-16, Final residual = 2.1087790623e-61, No Iterations 29
DILUPBiCGStab:  Solving for ILambda_24_0, Initial residual = 4.20205787849e-16, Final residual = 4.98998861394e-61, No Iterations 58
DILUPBiCGStab:  Solving for ILambda_25_0, Initial residual = 5.69970695796e-16, Final residual = 7.98022899412e-61, No Iterations 91
DILUPBiCGStab:  Solving for ILambda_26_0, Initial residual = 8.66144193848e-16, Final residual = 6.62400621856e-62, No Iterations 116
DILUPBiCGStab:  Solving for ILambda_27_0, Initial residual = 8.970671462e-16, Final residual = 4.57537837568e-61, No Iterations 130
DILUPBiCGStab:  Solving for ILambda_28_0, Initial residual = 8.16401093283e-16, Final residual = 8.42946467075e-61, No Iterations 131
DILUPBiCGStab:  Solving for ILambda_29_0, Initial residual = 8.34462070507e-16, Final residual = 9.73901749874e-61, No Iterations 111
DILUPBiCGStab:  Solving for ILambda_30_0, Initial residual = 4.71478875216e-16, Final residual = 4.92343306461e-61, No Iterations 89
DILUPBiCGStab:  Solving for ILambda_31_0, Initial residual = 3.84136791469e-16, Final residual = 5.2866694105e-61, No Iterations 55
DILUPBiCGStab:  Solving for ILambda_32_0, Initial residual = 1.47651093891e-15, Final residual = 2.82543485083e-75, No Iterations 2
DILUPBiCGStab:  Solving for ILambda_33_0, Initial residual = 1.56632290497e-15, Final residual = 1.082118857e-74, No Iterations 2
DILUPBiCGStab:  Solving for ILambda_34_0, Initial residual = 1.5816597337e-15, Final residual = 1.39772060135e-75, No Iterations 2
DILUPBiCGStab:  Solving for ILambda_35_0, Initial residual = 1.57031205872e-15, Final residual = 2.27111816562e-75, No Iterations 2
DILUPBiCGStab:  Solving for ILambda_36_0, Initial residual = 1.57920578502e-15, Final residual = 2.09546690347e-74, No Iterations 2
DILUPBiCGStab:  Solving for ILambda_37_0, Initial residual = 1.76962290718e-15, Final residual = 1.32718759444e-74, No Iterations 2
DILUPBiCGStab:  Solving for ILambda_38_0, Initial residual = 1.74631234921e-15, Final residual = 3.07456022391e-75, No Iterations 2
DILUPBiCGStab:  Solving for ILambda_39_0, Initial residual = 1.62475848746e-15, Final residual = 1.45975643817e-75, No Iterations 2
DILUPBiCGStab:  Solving for ILambda_40_0, Initial residual = 2.02871182064e-15, Final residual = 4.04804740034e-61, No Iterations 60
DILUPBiCGStab:  Solving for ILambda_41_0, Initial residual = 2.65244603518e-15, Final residual = 2.30325739252e-61, No Iterations 97
DILUPBiCGStab:  Solving for ILambda_42_0, Initial residual = 3.5412548802e-15, Final residual = 6.99821087917e-61, No Iterations 115
DILUPBiCGStab:  Solving for ILambda_43_0, Initial residual = 3.45594813686e-15, Final residual = 7.7596431229e-61, No Iterations 133
DILUPBiCGStab:  Solving for ILambda_44_0, Initial residual = 3.99283635586e-15, Final residual = 6.57444652112e-61, No Iterations 128
DILUPBiCGStab:  Solving for ILambda_45_0, Initial residual = 3.45065235125e-15, Final residual = 1.78124363451e-61, No Iterations 115
DILUPBiCGStab:  Solving for ILambda_46_0, Initial residual = 3.38050998699e-15, Final residual = 4.63990397543e-61, No Iterations 92
DILUPBiCGStab:  Solving for ILambda_47_0, Initial residual = 2.16058034308e-15, Final residual = 6.4609084855e-61, No Iterations 62
DILUPBiCGStab:  Solving for ILambda_48_0, Initial residual = 1.63624799297e-15, Final residual = 3.57612636852e-61, No Iterations 36
DILUPBiCGStab:  Solving for ILambda_49_0, Initial residual = 1.77654290841e-15, Final residual = 3.34999362878e-61, No Iterations 39
DILUPBiCGStab:  Solving for ILambda_50_0, Initial residual = 1.77816315125e-15, Final residual = 3.03936172569e-61, No Iterations 38
DILUPBiCGStab:  Solving for ILambda_51_0, Initial residual = 1.7045193191e-15, Final residual = 5.80175798473e-61, No Iterations 36
DILUPBiCGStab:  Solving for ILambda_52_0, Initial residual = 1.69073248184e-15, Final residual = 2.45701409101e-61, No Iterations 38
DILUPBiCGStab:  Solving for ILambda_53_0, Initial residual = 1.60285734387e-15, Final residual = 4.73845852998e-61, No Iterations 38
DILUPBiCGStab:  Solving for ILambda_54_0, Initial residual = 1.58312916475e-15, Final residual = 1.38702498339e-61, No Iterations 37
DILUPBiCGStab:  Solving for ILambda_55_0, Initial residual = 1.52855552724e-15, Final residual = 6.43910663976e-61, No Iterations 37
DILUPBiCGStab:  Solving for ILambda_56_0, Initial residual = 1.93025477255e-15, Final residual = 4.82292841666e-61, No Iterations 61
DILUPBiCGStab:  Solving for ILambda_57_0, Initial residual = 2.79740788903e-15, Final residual = 8.31727231252e-61, No Iterations 93
DILUPBiCGStab:  Solving for ILambda_58_0, Initial residual = 3.37390319308e-15, Final residual = 4.06771205652e-61, No Iterations 114
DILUPBiCGStab:  Solving for ILambda_59_0, Initial residual = 3.88765691008e-15, Final residual = 3.00537902706e-61, No Iterations 130
DILUPBiCGStab:  Solving for ILambda_60_0, Initial residual = 3.70095823464e-15, Final residual = 8.3371566955e-61, No Iterations 134
DILUPBiCGStab:  Solving for ILambda_61_0, Initial residual = 2.90575880133e-15, Final residual = 2.67437119029e-61, No Iterations 118
DILUPBiCGStab:  Solving for ILambda_62_0, Initial residual = 2.83918711531e-15, Final residual = 5.42931116726e-61, No Iterations 100
DILUPBiCGStab:  Solving for ILambda_63_0, Initial residual = 1.99287703266e-15, Final residual = 5.45715388651e-61, No Iterations 60
[...]
DILUPBiCGStab:  Solving for ILambda_108_0, Initial residual = 6.18219636325e-16, Final residual = 6.04150987502e-61, No Iterations 133
DILUPBiCGStab:  Solving for ILambda_109_0, Initial residual = 6.58208732766e-16, Final residual = 7.34948988559e-61, No Iterations 113
DILUPBiCGStab:  Solving for ILambda_110_0, Initial residual = 5.66049206858e-16, Final residual = 5.26163475063e-61, No Iterations 93
DILUPBiCGStab:  Solving for ILambda_111_0, Initial residual = 4.15170949925e-16, Final residual = 2.0272384083e-61, No Iterations 54
DILUPBiCGStab:  Solving for ILambda_112_0, Initial residual = 3.63486028728e-16, Final residual = 5.23767115519e-61, No Iterations 2
DILUPBiCGStab:  Solving for ILambda_113_0, Initial residual = 3.9791170241e-16, Final residual = 2.35842521957e-72, No Iterations 2
DILUPBiCGStab:  Solving for ILambda_114_0, Initial residual = 3.75858198818e-16, Final residual = 1.16713944194e-72, No Iterations 2
DILUPBiCGStab:  Solving for ILambda_115_0, Initial residual = 3.79072526789e-16, Final residual = 7.18541296385e-61, No Iterations 2
DILUPBiCGStab:  Solving for ILambda_116_0, Initial residual = 3.70589096725e-16, Final residual = 1.39759050171e-61, No Iterations 2
DILUPBiCGStab:  Solving for ILambda_117_0, Initial residual = 3.51275093677e-16, Final residual = 1.98166000267e-75, No Iterations 2
DILUPBiCGStab:  Solving for ILambda_118_0, Initial residual = 3.62745826724e-16, Final residual = 8.52112539196e-61, No Iterations 2
DILUPBiCGStab:  Solving for ILambda_119_0, Initial residual = 3.56964732016e-16, Final residual = 4.12225567725e-75, No Iterations 2
DILUPBiCGStab:  Solving for ILambda_120_0, Initial residual = 4.13037806254e-16, Final residual = 7.6798155412e-61, No Iterations 57
DILUPBiCGStab:  Solving for ILambda_121_0, Initial residual = 5.34398281561e-16, Final residual = 5.33132248829e-61, No Iterations 91
DILUPBiCGStab:  Solving for ILambda_122_0, Initial residual = 6.42789383775e-16, Final residual = 5.30438822904e-61, No Iterations 116
DILUPBiCGStab:  Solving for ILambda_123_0, Initial residual = 5.81420614218e-16, Final residual = 2.97954465478e-61, No Iterations 124
DILUPBiCGStab:  Solving for ILambda_124_0, Initial residual = 6.80360841615e-16, Final residual = 4.53072858581e-61, No Iterations 129
DILUPBiCGStab:  Solving for ILambda_125_0, Initial residual = 6.13620915078e-16, Final residual = 6.21086091501e-61, No Iterations 108
DILUPBiCGStab:  Solving for ILambda_126_0, Initial residual = 5.01688627757e-16, Final residual = 2.94289728191e-61, No Iterations 92
DILUPBiCGStab:  Solving for ILambda_127_0, Initial residual = 4.1047814326e-16, Final residual = 1.84690026351e-61, No Iterations 57
min/max(T) = 1000, 1000
PIMPLE: iteration 10
Radiation solver iter: 0
DILUPBiCGStab:  Solving for ILambda_0_0, Initial residual = 3.46396392025e-16, Final residual = 1.43652441784e-74, No Iterations 2
DILUPBiCGStab:  Solving for ILambda_1_0, Initial residual = 3.63880656893e-16, Final residual = 8.90927998731e-76, No Iterations 2
DILUPBiCGStab:  Solving for ILambda_2_0, Initial residual = 3.45054669005e-16, Final residual = 8.36542185713e-61, No Iterations 2
DILUPBiCGStab:  Solving for ILambda_3_0, Initial residual = 3.81828494735e-16, Final residual = 2.97949703768e-75, No Iterations 2
DILUPBiCGStab:  Solving for ILambda_4_0, Initial residual = 3.75747271552e-16, Final residual = 2.50559327182e-75, No Iterations 2
DILUPBiCGStab:  Solving for ILambda_5_0, Initial residual = 3.77538901806e-16, Final residual = 2.51747340954e-61, No Iterations 2
DILUPBiCGStab:  Solving for ILambda_6_0, Initial residual = 3.91616328607e-16, Final residual = 1.88776087214e-75, No Iterations 2
DILUPBiCGStab:  Solving for ILambda_7_0, Initial residual = 3.7123425729e-16, Final residual = 1.03637209102e-61, No Iterations 2
DILUPBiCGStab:  Solving for ILambda_8_0, Initial residual = 3.81331110601e-16, Final residual = 9.06941761966e-61, No Iterations 56
DILUPBiCGStab:  Solving for ILambda_9_0, Initial residual = 5.87459167141e-16, Final residual = 9.09314504488e-61, No Iterations 91
DILUPBiCGStab:  Solving for ILambda_10_0, Initial residual = 5.39829943835e-16, Final residual = 7.91798791274e-61, No Iterations 115
DILUPBiCGStab:  Solving for ILambda_11_0, Initial residual = 6.75206721889e-16, Final residual = 6.86766722983e-61, No Iterations 124
DILUPBiCGStab:  Solving for ILambda_12_0, Initial residual = 6.30608459708e-16, Final residual = 3.7020850441e-61, No Iterations 129
DILUPBiCGStab:  Solving for ILambda_13_0, Initial residual = 5.3674254049e-16, Final residual = 1.76938540462e-61, No Iterations 118
DILUPBiCGStab:  Solving for ILambda_14_0, Initial residual = 5.55106745279e-16, Final residual = 1.29397779518e-61, No Iterations 92
DILUPBiCGStab:  Solving for ILambda_15_0, Initial residual = 4.27395431214e-16, Final residual = 5.89583207843e-61, No Iterations 57
DILUPBiCGStab:  Solving for ILambda_16_0, Initial residual = 3.62183502431e-16, Final residual = 9.56094314603e-61, No Iterations 29
DILUPBiCGStab:  Solving for ILambda_17_0, Initial residual = 3.82657354101e-16, Final residual = 1.2778061199e-61, No Iterations 30
DILUPBiCGStab:  Solving for ILambda_18_0, Initial residual = 3.7770949254e-16, Final residual = 5.30339217393e-61, No Iterations 29
DILUPBiCGStab:  Solving for ILambda_19_0, Initial residual = 3.81402615413e-16, Final residual = 6.93221360904e-62, No Iterations 30
DILUPBiCGStab:  Solving for ILambda_20_0, Initial residual = 3.76337054796e-16, Final residual = 1.25275933771e-61, No Iterations 31
DILUPBiCGStab:  Solving for ILambda_21_0, Initial residual = 3.50417689214e-16, Final residual = 4.9189463297e-61, No Iterations 30
DILUPBiCGStab:  Solving for ILambda_22_0, Initial residual = 3.59804147027e-16, Final residual = 3.64644735264e-61, No Iterations 30
DILUPBiCGStab:  Solving for ILambda_23_0, Initial residual = 3.49236032766e-16, Final residual = 6.62466187032e-61, No Iterations 28
DILUPBiCGStab:  Solving for ILambda_24_0, Initial residual = 4.55643501851e-16, Final residual = 2.9630206669e-61, No Iterations 56
DILUPBiCGStab:  Solving for ILambda_25_0, Initial residual = 6.05440088507e-16, Final residual = 9.48111995748e-61, No Iterations 90
DILUPBiCGStab:  Solving for ILambda_26_0, Initial residual = 6.13317597218e-16, Final residual = 4.72923105932e-61, No Iterations 114
DILUPBiCGStab:  Solving for ILambda_27_0, Initial residual = 6.14267302531e-16, Final residual = 2.73019152932e-61, No Iterations 131
DILUPBiCGStab:  Solving for ILambda_28_0, Initial residual = 5.68934075198e-16, Final residual = 4.08230443998e-61, No Iterations 125
DILUPBiCGStab:  Solving for ILambda_29_0, Initial residual = 6.02368294805e-16, Final residual = 5.20987241256e-61, No Iterations 115
DILUPBiCGStab:  Solving for ILambda_30_0, Initial residual = 4.65743340062e-16, Final residual = 5.48959383059e-61, No Iterations 93
DILUPBiCGStab:  Solving for ILambda_31_0, Initial residual = 3.84750995653e-16, Final residual = 4.15306834275e-61, No Iterations 57
DILUPBiCGStab:  Solving for ILambda_32_0, Initial residual = 1.46596293555e-15, Final residual = 3.62429397221e-75, No Iterations 2
DILUPBiCGStab:  Solving for ILambda_33_0, Initial residual = 1.56105944338e-15, Final residual = 1.00545833298e-74, No Iterations 2
DILUPBiCGStab:  Solving for ILambda_34_0, Initial residual = 1.60220507425e-15, Final residual = 8.59133502718e-74, No Iterations 2
DILUPBiCGStab:  Solving for ILambda_35_0, Initial residual = 1.72120650156e-15, Final residual = 4.70874971622e-75, No Iterations 2
DILUPBiCGStab:  Solving for ILambda_36_0, Initial residual = 1.69420805226e-15, Final residual = 4.59723308187e-75, No Iterations 2
DILUPBiCGStab:  Solving for ILambda_37_0, Initial residual = 1.77602067312e-15, Final residual = 9.11550308434e-74, No Iterations 2
DILUPBiCGStab:  Solving for ILambda_38_0, Initial residual = 1.71049550249e-15, Final residual = 2.96739092775e-75, No Iterations 2
DILUPBiCGStab:  Solving for ILambda_39_0, Initial residual = 1.62888597697e-15, Final residual = 2.53816863973e-74, No Iterations 2
DILUPBiCGStab:  Solving for ILambda_40_0, Initial residual = 1.59038187076e-15, Final residual = 7.40567778215e-61, No Iterations 60
DILUPBiCGStab:  Solving for ILambda_41_0, Initial residual = 2.73645803315e-15, Final residual = 2.38992121168e-61, No Iterations 97
DILUPBiCGStab:  Solving for ILambda_42_0, Initial residual = 2.4290611371e-15, Final residual = 4.12695101034e-61, No Iterations 120
DILUPBiCGStab:  Solving for ILambda_43_0, Initial residual = 2.80240674617e-15, Final residual = 4.98755646721e-61, No Iterations 127
DILUPBiCGStab:  Solving for ILambda_44_0, Initial residual = 3.1220128166e-15, Final residual = 5.85625603755e-61, No Iterations 127
DILUPBiCGStab:  Solving for ILambda_45_0, Initial residual = 3.37668019608e-15, Final residual = 6.85979849252e-61, No Iterations 111
DILUPBiCGStab:  Solving for ILambda_46_0, Initial residual = 2.27821468635e-15, Final residual = 9.63876799932e-61, No Iterations 91
DILUPBiCGStab:  Solving for ILambda_47_0, Initial residual = 1.87294259582e-15, Final residual = 9.7106834073e-61, No Iterations 62
DILUPBiCGStab:  Solving for ILambda_48_0, Initial residual = 1.60989895587e-15, Final residual = 4.5567478925e-61, No Iterations 36
DILUPBiCGStab:  Solving for ILambda_49_0, Initial residual = 1.77100228136e-15, Final residual = 8.18920308461e-61, No Iterations 38
DILUPBiCGStab:  Solving for ILambda_50_0, Initial residual = 1.76781490777e-15, Final residual = 8.48755769686e-62, No Iterations 37
DILUPBiCGStab:  Solving for ILambda_51_0, Initial residual = 1.91519778612e-15, Final residual = 9.16817026626e-61, No Iterations 37
DILUPBiCGStab:  Solving for ILambda_52_0, Initial residual = 1.65148633064e-15, Final residual = 4.55621606986e-61, No Iterations 39
DILUPBiCGStab:  Solving for ILambda_53_0, Initial residual = 2.00740045499e-15, Final residual = 1.05879961515e-61, No Iterations 37
DILUPBiCGStab:  Solving for ILambda_54_0, Initial residual = 1.59285540719e-15, Final residual = 3.43675031852e-61, No Iterations 41
DILUPBiCGStab:  Solving for ILambda_55_0, Initial residual = 1.45766705491e-15, Final residual = 2.18612516715e-61, No Iterations 35
DILUPBiCGStab:  Solving for ILambda_56_0, Initial residual = 1.84803649214e-15, Final residual = 9.46759354213e-61, No Iterations 63
DILUPBiCGStab:  Solving for ILambda_57_0, Initial residual = 3.03814492768e-15, Final residual = 3.41132447535e-61, No Iterations 94
DILUPBiCGStab:  Solving for ILambda_58_0, Initial residual = 2.63399427245e-15, Final residual = 8.88622678326e-61, No Iterations 109
DILUPBiCGStab:  Solving for ILambda_59_0, Initial residual = 2.8322898673e-15, Final residual = 5.60724312171e-61, No Iterations 128
DILUPBiCGStab:  Solving for ILambda_60_0, Initial residual = 3.19002160434e-15, Final residual = 3.91104373193e-61, No Iterations 132
DILUPBiCGStab:  Solving for ILambda_61_0, Initial residual = 2.45385171667e-15, Final residual = 3.66755680176e-61, No Iterations 121
DILUPBiCGStab:  Solving for ILambda_62_0, Initial residual = 2.82732013152e-15, Final residual = 7.51378273812e-61, No Iterations 94
DILUPBiCGStab:  Solving for ILambda_63_0, Initial residual = 1.81764205026e-15, Final residual = 3.0489049974e-62, No Iterations 62
DILUPBiCGStab:  Solving for ILambda_64_0, Initial residual = 1.44895192332e-15, Final residual = 1.96373792846e-61, No Iterations 38
DILUPBiCGStab:  Solving for ILambda_65_0, Initial residual = 1.58388366452e-15, Final residual = 4.28979817358e-61, No Iterations 38
DILUPBiCGStab:  Solving for ILambda_66_0, Initial residual = 1.58022891514e-15, Final residual = 3.47823213322e-61, No Iterations 39
DILUPBiCGStab:  Solving for ILambda_67_0, Initial residual = 1.65997741946e-15, Final residual = 6.71647186212e-61, No Iterations 39
DILUPBiCGStab:  Solving for ILambda_68_0, Initial residual = 1.64161028554e-15, Final residual = 2.63024534972e-61, No Iterations 39
DILUPBiCGStab:  Solving for ILambda_69_0, Initial residual = 1.71885517074e-15, Final residual = 6.62596466414e-62, No Iterations 39
DILUPBiCGStab:  Solving for ILambda_70_0, Initial residual = 1.77752413839e-15, Final residual = 5.27105390079e-61, No Iterations 35
DILUPBiCGStab:  Solving for ILambda_71_0, Initial residual = 1.59327332499e-15, Final residual = 5.17583434216e-61, No Iterations 36
DILUPBiCGStab:  Solving for ILambda_72_0, Initial residual = 1.92275413396e-15, Final residual = 6.22817678004e-61, No Iterations 64
DILUPBiCGStab:  Solving for ILambda_73_0, Initial residual = 2.81262578915e-15, Final residual = 8.03885456561e-61, No Iterations 93
DILUPBiCGStab:  Solving for ILambda_74_0, Initial residual = 2.28328161724e-15, Final residual = 5.94112075921e-61, No Iterations 112
DILUPBiCGStab:  Solving for ILambda_75_0, Initial residual = 2.75705573689e-15, Final residual = 4.16845526925e-61, No Iterations 124
DILUPBiCGStab:  Solving for ILambda_76_0, Initial residual = 3.81878103552e-15, Final residual = 8.62863460869e-61, No Iterations 127
DILUPBiCGStab:  Solving for ILambda_77_0, Initial residual = 2.72862357443e-15, Final residual = 2.8593744905e-61, No Iterations 119
DILUPBiCGStab:  Solving for ILambda_78_0, Initial residual = 3.31133681749e-15, Final residual = 8.39354332295e-61, No Iterations 92
DILUPBiCGStab:  Solving for ILambda_79_0, Initial residual = 1.94154007267e-15, Final residual = 5.30958052553e-61, No Iterations 61
DILUPBiCGStab:  Solving for ILambda_80_0, Initial residual = 1.58729630774e-15, Final residual = 4.05387818347e-72, No Iterations 2
DILUPBiCGStab:  Solving for ILambda_81_0, Initial residual = 1.72423895247e-15, Final residual = 3.08540999641e-72, No Iterations 2
DILUPBiCGStab:  Solving for ILambda_82_0, Initial residual = 1.74868126542e-15, Final residual = 8.6173162393e-74, No Iterations 2
DILUPBiCGStab:  Solving for ILambda_83_0, Initial residual = 1.70010854029e-15, Final residual = 1.30528541847e-72, No Iterations 2
DILUPBiCGStab:  Solving for ILambda_84_0, Initial residual = 1.70129249915e-15, Final residual = 2.05676375525e-72, No Iterations 2
DILUPBiCGStab:  Solving for ILambda_85_0, Initial residual = 1.55133082683e-15, Final residual = 1.58751872897e-74, No Iterations 2
DILUPBiCGStab:  Solving for ILambda_86_0, Initial residual = 1.54222922511e-15, Final residual = 7.37791741107e-76, No Iterations 2
DILUPBiCGStab:  Solving for ILambda_87_0, Initial residual = 1.45540147356e-15, Final residual = 3.52219990521e-72, No Iterations 2
DILUPBiCGStab:  Solving for ILambda_88_0, Initial residual = 1.99222183123e-15, Final residual = 5.87211343425e-61, No Iterations 59
DILUPBiCGStab:  Solving for ILambda_89_0, Initial residual = 2.1298450862e-15, Final residual = 6.48996808603e-61, No Iterations 94
DILUPBiCGStab:  Solving for ILambda_90_0, Initial residual = 3.29371304575e-15, Final residual = 6.0676736894e-61, No Iterations 118
DILUPBiCGStab:  Solving for ILambda_91_0, Initial residual = 3.07907375496e-15, Final residual = 7.76887096135e-61, No Iterations 132
DILUPBiCGStab:  Solving for ILambda_92_0, Initial residual = 3.13896800799e-15, Final residual = 9.82117988572e-61, No Iterations 131
DILUPBiCGStab:  Solving for ILambda_93_0, Initial residual = 3.05243090706e-15, Final residual = 1.90516751748e-61, No Iterations 113
DILUPBiCGStab:  Solving for ILambda_94_0, Initial residual = 2.84514154929e-15, Final residual = 2.87806909108e-61, No Iterations 99
DILUPBiCGStab:  Solving for ILambda_95_0, Initial residual = 1.68892021221e-15, Final residual = 2.13583557431e-62, No Iterations 64
DILUPBiCGStab:  Solving for ILambda_96_0, Initial residual = 3.48484881706e-16, Final residual = 4.44494387792e-61, No Iterations 28
DILUPBiCGStab:  Solving for ILambda_97_0, Initial residual = 3.72515461738e-16, Final residual = 1.96808928862e-61, No Iterations 29
DILUPBiCGStab:  Solving for ILambda_98_0, Initial residual = 3.46243166293e-16, Final residual = 8.33152392945e-62, No Iterations 30
DILUPBiCGStab:  Solving for ILambda_99_0, Initial residual = 3.79471032139e-16, Final residual = 1.56627079406e-61, No Iterations 32
DILUPBiCGStab:  Solving for ILambda_100_0, Initial residual = 3.80570186916e-16, Final residual = 6.24468339173e-61, No Iterations 29
DILUPBiCGStab:  Solving for ILambda_101_0, Initial residual = 3.71768270182e-16, Final residual = 4.01419468407e-61, No Iterations 32
DILUPBiCGStab:  Solving for ILambda_102_0, Initial residual = 3.95993375912e-16, Final residual = 9.29872046711e-61, No Iterations 30
DILUPBiCGStab:  Solving for ILambda_103_0, Initial residual = 3.71153842927e-16, Final residual = 3.18047507066e-61, No Iterations 28
DILUPBiCGStab:  Solving for ILambda_104_0, Initial residual = 3.9928638945e-16, Final residual = 9.53768004573e-61, No Iterations 55
DILUPBiCGStab:  Solving for ILambda_105_0, Initial residual = 5.10577204838e-16, Final residual = 5.5925761398e-61, No Iterations 90
DILUPBiCGStab:  Solving for ILambda_106_0, Initial residual = 6.13718335935e-16, Final residual = 2.20338068311e-61, No Iterations 113
DILUPBiCGStab:  Solving for ILambda_107_0, Initial residual = 5.79813482099e-16, Final residual = 9.59650552147e-61, No Iterations 126
DILUPBiCGStab:  Solving for ILambda_108_0, Initial residual = 6.88964352812e-16, Final residual = 5.33634830207e-61, No Iterations 131
DILUPBiCGStab:  Solving for ILambda_109_0, Initial residual = 6.72645335412e-16, Final residual = 4.17051081364e-61, No Iterations 114
DILUPBiCGStab:  Solving for ILambda_110_0, Initial residual = 6.12741636401e-16, Final residual = 7.83984723955e-61, No Iterations 90
DILUPBiCGStab:  Solving for ILambda_111_0, Initial residual = 4.09955753952e-16, Final residual = 4.51579420733e-61, No Iterations 55
DILUPBiCGStab:  Solving for ILambda_112_0, Initial residual = 3.65426160396e-16, Final residual = 3.38565047681e-61, No Iterations 2
DILUPBiCGStab:  Solving for ILambda_113_0, Initial residual = 3.97223220963e-16, Final residual = 2.67024731961e-75, No Iterations 2
DILUPBiCGStab:  Solving for ILambda_114_0, Initial residual = 3.73049256868e-16, Final residual = 7.50595816489e-61, No Iterations 2
DILUPBiCGStab:  Solving for ILambda_115_0, Initial residual = 3.82670857853e-16, Final residual = 7.49187712989e-61, No Iterations 2
DILUPBiCGStab:  Solving for ILambda_116_0, Initial residual = 3.80238602805e-16, Final residual = 4.03476496278e-73, No Iterations 2
DILUPBiCGStab:  Solving for ILambda_117_0, Initial residual = 3.50531582789e-16, Final residual = 7.33332109244e-73, No Iterations 2
DILUPBiCGStab:  Solving for ILambda_118_0, Initial residual = 3.63696068469e-16, Final residual = 4.26044405726e-75, No Iterations 2
DILUPBiCGStab:  Solving for ILambda_119_0, Initial residual = 3.53773146643e-16, Final residual = 5.37248580675e-61, No Iterations 2
DILUPBiCGStab:  Solving for ILambda_120_0, Initial residual = 4.10097717267e-16, Final residual = 6.70225268929e-61, No Iterations 59
DILUPBiCGStab:  Solving for ILambda_121_0, Initial residual = 5.83781239642e-16, Final residual = 6.32643595893e-61, No Iterations 92
DILUPBiCGStab:  Solving for ILambda_122_0, Initial residual = 5.98840523161e-16, Final residual = 9.52393793236e-61, No Iterations 114
DILUPBiCGStab:  Solving for ILambda_123_0, Initial residual = 6.11112967329e-16, Final residual = 3.55699217979e-61, No Iterations 126
DILUPBiCGStab:  Solving for ILambda_124_0, Initial residual = 7.11183528958e-16, Final residual = 8.34999549882e-61, No Iterations 127
DILUPBiCGStab:  Solving for ILambda_125_0, Initial residual = 5.68897690762e-16, Final residual = 4.90167379098e-61, No Iterations 114
DILUPBiCGStab:  Solving for ILambda_126_0, Initial residual = 5.63009126387e-16, Final residual = 3.66633115057e-61, No Iterations 93
DILUPBiCGStab:  Solving for ILambda_127_0, Initial residual = 4.08385776398e-16, Final residual = 4.47271302299e-61, No Iterations 57
min/max(T) = 1000, 1000
ExecutionTime = 3561.36 s  ClockTime = 3562 s

writeObjects writeObjects1.writeObjects write:
    writing object a
    writing object qem
End

