/*---------------------------------------------------------------------------*\
| =========                 |                                                 |
| \\      /  F ield         | OpenFOAM: The Open Source CFD Toolbox           |
|  \\    /   O peration     | Version:  2306                                  |
|   \\  /    A nd           | Website:  www.openfoam.com                      |
|    \\/     M anipulation  |                                                 |
\*---------------------------------------------------------------------------*/
Build  : _fbf00d6b-20230626 OPENFOAM=2306 version=2306
Arch   : "LSB;label=32;scalar=64"
Exec   : fireRADFoam_MaCFP
Date   : Mar 12 2024
Time   : 19:31:13
Host   : pop-os
PID    : 173239
I/O    : uncollated
Case   : /home/rafay/Desktop/Study/Radiative_Heat_Transfer/Local_copy_RHT2324/01_Projects/02_Rafay/Case_1_q1D_SolidAngle/new_case3/th_4-ph_8/tau_10/res_2
nProcs : 1
trapFpe: Floating point exception trapping enabled (FOAM_SIGFPE).
fileModificationChecking : Monitoring run-time modified files using timeStampMaster (fileModificationSkew 5, maxFileModificationPolls 20)
allowSystemOperations : Allowing user-supplied system call operations

// * * * * * * * * * * * * * * * * * * * * * * * * * * * * * * * * * * * * * //
Create time

Create mesh for time = 0


PIMPLE: no residual control data found. Calculations will employ 10 corrector loops

Reading thermophysical properties

Selecting thermodynamics package 
{
    type            hePsiThermo;
    mixture         singleStepReactingMixture;
    transport       sutherland;
    thermo          janaf;
    energy          sensibleEnthalpy;
    equationOfState perfectGas;
    specie          specie;
}

Selecting chemistryReader foamChemistryReader
    elements not defined in "/home/rafay/Desktop/Study/Radiative_Heat_Transfer/Local_copy_RHT2324/01_Projects/02_Rafay/Case_1_q1D_SolidAngle/new_case3/th_4-ph_8/tau_10/res_2/constant/reactions"
Fuel heat of combustion :47168962.4726
stoichiometric air-fuel ratio :14.6914056505
stoichiometric oxygen-fuel ratio :3.42181919285
Maximum products mass concentrations:
    H2O: 0.0818486943001
    CO2: 0.199950099979
    N2: 0.718201205721
Creating component thermo properties:
    multi-component carrier - 6 species
    no liquid components
    no solid components
Creating field rho


Reading field U

Reading/calculating face flux field phi

Selecting radiationModel fvDOM
Selecting absorptionEmissionModel constantAbsorptionEmission
Selecting scatterModel none
Selecting sootModel none
fvDOM : Allocated 128 rays with average orientation:
	I0 : dAve : 	(0.00274192284156 0.0278392098 0.0490873852123) : omega : 	0.0575094490319 : d : 	(0.0375095356919 0.38084070704 0.923879532511)
	I1 : dAve : 	(0.00812039796756 0.0267693645798 0.0490873852123) : omega : 	0.0575094490319 : d : 	(0.111087136655 0.366205212247 0.923879532511)
	I2 : dAve : 	(0.0131868107536 0.0246707876912 0.0490873852123) : omega : 	0.0575094490319 : d : 	(0.180395721254 0.337496656517 0.923879532511)
	I3 : dAve : 	(0.0177464617977 0.0216241262672 0.0490873852123) : omega : 	0.0575094490319 : d : 	(0.242771799453 0.295818293547 0.923879532511)
	I4 : dAve : 	(0.0216241262672 0.0177464617977 0.0490873852123) : omega : 	0.0575094490319 : d : 	(0.295818293547 0.242771799453 0.923879532511)
	I5 : dAve : 	(0.0246707876912 0.0131868107536 0.0490873852123) : omega : 	0.0575094490319 : d : 	(0.337496656517 0.180395721254 0.923879532511)
	I6 : dAve : 	(0.0267693645798 0.00812039796756 0.0490873852123) : omega : 	0.0575094490319 : d : 	(0.366205212247 0.111087136655 0.923879532511)
	I7 : dAve : 	(0.0278392098 0.00274192284156 0.0490873852123) : omega : 	0.0575094490319 : d : 	(0.38084070704 0.0375095356919 0.923879532511)
	I8 : dAve : 	(0.0278392098 -0.00274192284156 0.0490873852123) : omega : 	0.0575094490319 : d : 	(0.38084070704 -0.0375095356919 0.923879532511)
	I9 : dAve : 	(0.0267693645798 -0.00812039796756 0.0490873852123) : omega : 	0.0575094490319 : d : 	(0.366205212247 -0.111087136655 0.923879532511)
	I10 : dAve : 	(0.0246707876912 -0.0131868107536 0.0490873852123) : omega : 	0.0575094490319 : d : 	(0.337496656517 -0.180395721254 0.923879532511)
	I11 : dAve : 	(0.0216241262672 -0.0177464617977 0.0490873852123) : omega : 	0.0575094490319 : d : 	(0.295818293547 -0.242771799453 0.923879532511)
	I12 : dAve : 	(0.0177464617977 -0.0216241262672 0.0490873852123) : omega : 	0.0575094490319 : d : 	(0.242771799453 -0.295818293547 0.923879532511)
	I13 : dAve : 	(0.0131868107536 -0.0246707876912 0.0490873852123) : omega : 	0.0575094490319 : d : 	(0.180395721254 -0.337496656517 0.923879532511)
	I14 : dAve : 	(0.00812039796756 -0.0267693645798 0.0490873852123) : omega : 	0.0575094490319 : d : 	(0.111087136655 -0.366205212247 0.923879532511)
	I15 : dAve : 	(0.00274192284156 -0.0278392098 0.0490873852123) : omega : 	0.0575094490319 : d : 	(0.0375095356919 -0.38084070704 0.923879532511)
	I16 : dAve : 	(-0.00274192284156 -0.0278392098 0.0490873852123) : omega : 	0.0575094490319 : d : 	(-0.0375095356919 -0.38084070704 0.923879532511)
	I17 : dAve : 	(-0.00812039796756 -0.0267693645798 0.0490873852123) : omega : 	0.0575094490319 : d : 	(-0.111087136655 -0.366205212247 0.923879532511)
	I18 : dAve : 	(-0.0131868107536 -0.0246707876912 0.0490873852123) : omega : 	0.0575094490319 : d : 	(-0.180395721254 -0.337496656517 0.923879532511)
	I19 : dAve : 	(-0.0177464617977 -0.0216241262672 0.0490873852123) : omega : 	0.0575094490319 : d : 	(-0.242771799453 -0.295818293547 0.923879532511)
	I20 : dAve : 	(-0.0216241262672 -0.0177464617977 0.0490873852123) : omega : 	0.0575094490319 : d : 	(-0.295818293547 -0.242771799453 0.923879532511)
	I21 : dAve : 	(-0.0246707876912 -0.0131868107536 0.0490873852123) : omega : 	0.0575094490319 : d : 	(-0.337496656517 -0.180395721254 0.923879532511)
	I22 : dAve : 	(-0.0267693645798 -0.00812039796756 0.0490873852123) : omega : 	0.0575094490319 : d : 	(-0.366205212247 -0.111087136655 0.923879532511)
	I23 : dAve : 	(-0.0278392098 -0.00274192284156 0.0490873852123) : omega : 	0.0575094490319 : d : 	(-0.38084070704 -0.0375095356919 0.923879532511)
	I24 : dAve : 	(-0.0278392098 0.00274192284156 0.0490873852123) : omega : 	0.0575094490319 : d : 	(-0.38084070704 0.0375095356919 0.923879532511)
	I25 : dAve : 	(-0.0267693645798 0.00812039796756 0.0490873852123) : omega : 	0.0575094490319 : d : 	(-0.366205212247 0.111087136655 0.923879532511)
	I26 : dAve : 	(-0.0246707876912 0.0131868107536 0.0490873852123) : omega : 	0.0575094490319 : d : 	(-0.337496656517 0.180395721254 0.923879532511)
	I27 : dAve : 	(-0.0216241262672 0.0177464617977 0.0490873852123) : omega : 	0.0575094490319 : d : 	(-0.295818293547 0.242771799453 0.923879532511)
	I28 : dAve : 	(-0.0177464617977 0.0216241262672 0.0490873852123) : omega : 	0.0575094490319 : d : 	(-0.242771799453 0.295818293547 0.923879532511)
	I29 : dAve : 	(-0.0131868107536 0.0246707876912 0.0490873852123) : omega : 	0.0575094490319 : d : 	(-0.180395721254 0.337496656517 0.923879532511)
	I30 : dAve : 	(-0.00812039796756 0.0267693645798 0.0490873852123) : omega : 	0.0575094490319 : d : 	(-0.111087136655 0.366205212247 0.923879532511)
	I31 : dAve : 	(-0.00274192284156 0.0278392098 0.0490873852123) : omega : 	0.0575094490319 : d : 	(-0.0375095356919 0.38084070704 0.923879532511)
	I32 : dAve : 	(0.0123492826399 0.125384370808 0.0490873852123) : omega : 	0.138840091817 : d : 	(0.0905560297858 0.91943080004 0.382683432365)
	I33 : dAve : 	(0.0365732719135 0.120565919754 0.0490873852123) : omega : 	0.138840091817 : d : 	(0.268188071917 0.884097590017 0.382683432365)
	I34 : dAve : 	(0.059391770858 0.111114188018 0.0490873852123) : omega : 	0.138840091817 : d : 	(0.435513796846 0.814789005418 0.382683432365)
	I35 : dAve : 	(0.0799278773557 0.0973924003507 0.0490873852123) : omega : 	0.138840091817 : d : 	(0.586102970801 0.714168536279 0.382683432365)
	I36 : dAve : 	(0.0973924003507 0.0799278773557 0.0490873852123) : omega : 	0.138840091817 : d : 	(0.714168536279 0.586102970801 0.382683432365)
	I37 : dAve : 	(0.111114188018 0.059391770858 0.0490873852123) : omega : 	0.138840091817 : d : 	(0.814789005418 0.435513796846 0.382683432365)
	I38 : dAve : 	(0.120565919754 0.0365732719135 0.0490873852123) : omega : 	0.138840091817 : d : 	(0.884097590017 0.268188071917 0.382683432365)
	I39 : dAve : 	(0.125384370808 0.0123492826399 0.0490873852123) : omega : 	0.138840091817 : d : 	(0.91943080004 0.0905560297858 0.382683432365)
	I40 : dAve : 	(0.125384370808 -0.0123492826399 0.0490873852123) : omega : 	0.138840091817 : d : 	(0.91943080004 -0.0905560297858 0.382683432365)
	I41 : dAve : 	(0.120565919754 -0.0365732719135 0.0490873852123) : omega : 	0.138840091817 : d : 	(0.884097590017 -0.268188071917 0.382683432365)
	I42 : dAve : 	(0.111114188018 -0.059391770858 0.0490873852123) : omega : 	0.138840091817 : d : 	(0.814789005418 -0.435513796846 0.382683432365)
	I43 : dAve : 	(0.0973924003507 -0.0799278773557 0.0490873852123) : omega : 	0.138840091817 : d : 	(0.714168536279 -0.586102970801 0.382683432365)
	I44 : dAve : 	(0.0799278773557 -0.0973924003507 0.0490873852123) : omega : 	0.138840091817 : d : 	(0.586102970801 -0.714168536279 0.382683432365)
	I45 : dAve : 	(0.059391770858 -0.111114188018 0.0490873852123) : omega : 	0.138840091817 : d : 	(0.435513796846 -0.814789005418 0.382683432365)
	I46 : dAve : 	(0.0365732719135 -0.120565919754 0.0490873852123) : omega : 	0.138840091817 : d : 	(0.268188071917 -0.884097590017 0.382683432365)
	I47 : dAve : 	(0.0123492826399 -0.125384370808 0.0490873852123) : omega : 	0.138840091817 : d : 	(0.0905560297858 -0.91943080004 0.382683432365)
	I48 : dAve : 	(-0.0123492826399 -0.125384370808 0.0490873852123) : omega : 	0.138840091817 : d : 	(-0.0905560297858 -0.91943080004 0.382683432365)
	I49 : dAve : 	(-0.0365732719135 -0.120565919754 0.0490873852123) : omega : 	0.138840091817 : d : 	(-0.268188071917 -0.884097590017 0.382683432365)
	I50 : dAve : 	(-0.059391770858 -0.111114188018 0.0490873852123) : omega : 	0.138840091817 : d : 	(-0.435513796846 -0.814789005418 0.382683432365)
	I51 : dAve : 	(-0.0799278773557 -0.0973924003507 0.0490873852123) : omega : 	0.138840091817 : d : 	(-0.586102970801 -0.714168536279 0.382683432365)
	I52 : dAve : 	(-0.0973924003507 -0.0799278773557 0.0490873852123) : omega : 	0.138840091817 : d : 	(-0.714168536279 -0.586102970801 0.382683432365)
	I53 : dAve : 	(-0.111114188018 -0.059391770858 0.0490873852123) : omega : 	0.138840091817 : d : 	(-0.814789005418 -0.435513796846 0.382683432365)
	I54 : dAve : 	(-0.120565919754 -0.0365732719135 0.0490873852123) : omega : 	0.138840091817 : d : 	(-0.884097590017 -0.268188071917 0.382683432365)
	I55 : dAve : 	(-0.125384370808 -0.0123492826399 0.0490873852123) : omega : 	0.138840091817 : d : 	(-0.91943080004 -0.0905560297858 0.382683432365)
	I56 : dAve : 	(-0.125384370808 0.0123492826399 0.0490873852123) : omega : 	0.138840091817 : d : 	(-0.91943080004 0.0905560297858 0.382683432365)
	I57 : dAve : 	(-0.120565919754 0.0365732719135 0.0490873852123) : omega : 	0.138840091817 : d : 	(-0.884097590017 0.268188071917 0.382683432365)
	I58 : dAve : 	(-0.111114188018 0.059391770858 0.0490873852123) : omega : 	0.138840091817 : d : 	(-0.814789005418 0.435513796846 0.382683432365)
	I59 : dAve : 	(-0.0973924003507 0.0799278773557 0.0490873852123) : omega : 	0.138840091817 : d : 	(-0.714168536279 0.586102970801 0.382683432365)
	I60 : dAve : 	(-0.0799278773557 0.0973924003507 0.0490873852123) : omega : 	0.138840091817 : d : 	(-0.586102970801 0.714168536279 0.382683432365)
	I61 : dAve : 	(-0.059391770858 0.111114188018 0.0490873852123) : omega : 	0.138840091817 : d : 	(-0.435513796846 0.814789005418 0.382683432365)
	I62 : dAve : 	(-0.0365732719135 0.120565919754 0.0490873852123) : omega : 	0.138840091817 : d : 	(-0.268188071917 0.884097590017 0.382683432365)
	I63 : dAve : 	(-0.0123492826399 0.125384370808 0.0490873852123) : omega : 	0.138840091817 : d : 	(-0.0905560297858 0.91943080004 0.382683432365)
	I64 : dAve : 	(0.0123492826399 0.125384370808 -0.0490873852123) : omega : 	0.138840091817 : d : 	(0.0905560297858 0.91943080004 -0.382683432365)
	I65 : dAve : 	(0.0365732719135 0.120565919754 -0.0490873852123) : omega : 	0.138840091817 : d : 	(0.268188071917 0.884097590017 -0.382683432365)
	I66 : dAve : 	(0.059391770858 0.111114188018 -0.0490873852123) : omega : 	0.138840091817 : d : 	(0.435513796846 0.814789005418 -0.382683432365)
	I67 : dAve : 	(0.0799278773557 0.0973924003507 -0.0490873852123) : omega : 	0.138840091817 : d : 	(0.586102970801 0.714168536279 -0.382683432365)
	I68 : dAve : 	(0.0973924003507 0.0799278773557 -0.0490873852123) : omega : 	0.138840091817 : d : 	(0.714168536279 0.586102970801 -0.382683432365)
	I69 : dAve : 	(0.111114188018 0.059391770858 -0.0490873852123) : omega : 	0.138840091817 : d : 	(0.814789005418 0.435513796846 -0.382683432365)
	I70 : dAve : 	(0.120565919754 0.0365732719135 -0.0490873852123) : omega : 	0.138840091817 : d : 	(0.884097590017 0.268188071917 -0.382683432365)
	I71 : dAve : 	(0.125384370808 0.0123492826399 -0.0490873852123) : omega : 	0.138840091817 : d : 	(0.91943080004 0.0905560297858 -0.382683432365)
	I72 : dAve : 	(0.125384370808 -0.0123492826399 -0.0490873852123) : omega : 	0.138840091817 : d : 	(0.91943080004 -0.0905560297858 -0.382683432365)
	I73 : dAve : 	(0.120565919754 -0.0365732719135 -0.0490873852123) : omega : 	0.138840091817 : d : 	(0.884097590017 -0.268188071917 -0.382683432365)
	I74 : dAve : 	(0.111114188018 -0.059391770858 -0.0490873852123) : omega : 	0.138840091817 : d : 	(0.814789005418 -0.435513796846 -0.382683432365)
	I75 : dAve : 	(0.0973924003507 -0.0799278773557 -0.0490873852123) : omega : 	0.138840091817 : d : 	(0.714168536279 -0.586102970801 -0.382683432365)
	I76 : dAve : 	(0.0799278773557 -0.0973924003507 -0.0490873852123) : omega : 	0.138840091817 : d : 	(0.586102970801 -0.714168536279 -0.382683432365)
	I77 : dAve : 	(0.059391770858 -0.111114188018 -0.0490873852123) : omega : 	0.138840091817 : d : 	(0.435513796846 -0.814789005418 -0.382683432365)
	I78 : dAve : 	(0.0365732719135 -0.120565919754 -0.0490873852123) : omega : 	0.138840091817 : d : 	(0.268188071917 -0.884097590017 -0.382683432365)
	I79 : dAve : 	(0.0123492826399 -0.125384370808 -0.0490873852123) : omega : 	0.138840091817 : d : 	(0.0905560297858 -0.91943080004 -0.382683432365)
	I80 : dAve : 	(-0.0123492826399 -0.125384370808 -0.0490873852123) : omega : 	0.138840091817 : d : 	(-0.0905560297858 -0.91943080004 -0.382683432365)
	I81 : dAve : 	(-0.0365732719135 -0.120565919754 -0.0490873852123) : omega : 	0.138840091817 : d : 	(-0.268188071917 -0.884097590017 -0.382683432365)
	I82 : dAve : 	(-0.059391770858 -0.111114188018 -0.0490873852123) : omega : 	0.138840091817 : d : 	(-0.435513796846 -0.814789005418 -0.382683432365)
	I83 : dAve : 	(-0.0799278773557 -0.0973924003507 -0.0490873852123) : omega : 	0.138840091817 : d : 	(-0.586102970801 -0.714168536279 -0.382683432365)
	I84 : dAve : 	(-0.0973924003507 -0.0799278773557 -0.0490873852123) : omega : 	0.138840091817 : d : 	(-0.714168536279 -0.586102970801 -0.382683432365)
	I85 : dAve : 	(-0.111114188018 -0.059391770858 -0.0490873852123) : omega : 	0.138840091817 : d : 	(-0.814789005418 -0.435513796846 -0.382683432365)
	I86 : dAve : 	(-0.120565919754 -0.0365732719135 -0.0490873852123) : omega : 	0.138840091817 : d : 	(-0.884097590017 -0.268188071917 -0.382683432365)
	I87 : dAve : 	(-0.125384370808 -0.0123492826399 -0.0490873852123) : omega : 	0.138840091817 : d : 	(-0.91943080004 -0.0905560297858 -0.382683432365)
	I88 : dAve : 	(-0.125384370808 0.0123492826399 -0.0490873852123) : omega : 	0.138840091817 : d : 	(-0.91943080004 0.0905560297858 -0.382683432365)
	I89 : dAve : 	(-0.120565919754 0.0365732719135 -0.0490873852123) : omega : 	0.138840091817 : d : 	(-0.884097590017 0.268188071917 -0.382683432365)
	I90 : dAve : 	(-0.111114188018 0.059391770858 -0.0490873852123) : omega : 	0.138840091817 : d : 	(-0.814789005418 0.435513796846 -0.382683432365)
	I91 : dAve : 	(-0.0973924003507 0.0799278773557 -0.0490873852123) : omega : 	0.138840091817 : d : 	(-0.714168536279 0.586102970801 -0.382683432365)
	I92 : dAve : 	(-0.0799278773557 0.0973924003507 -0.0490873852123) : omega : 	0.138840091817 : d : 	(-0.586102970801 0.714168536279 -0.382683432365)
	I93 : dAve : 	(-0.059391770858 0.111114188018 -0.0490873852123) : omega : 	0.138840091817 : d : 	(-0.435513796846 0.814789005418 -0.382683432365)
	I94 : dAve : 	(-0.0365732719135 0.120565919754 -0.0490873852123) : omega : 	0.138840091817 : d : 	(-0.268188071917 0.884097590017 -0.382683432365)
	I95 : dAve : 	(-0.0123492826399 0.125384370808 -0.0490873852123) : omega : 	0.138840091817 : d : 	(-0.0905560297858 0.91943080004 -0.382683432365)
	I96 : dAve : 	(0.00274192284156 0.0278392098 -0.0490873852123) : omega : 	0.0575094490319 : d : 	(0.0375095356919 0.38084070704 -0.923879532511)
	I97 : dAve : 	(0.00812039796756 0.0267693645798 -0.0490873852123) : omega : 	0.0575094490319 : d : 	(0.111087136655 0.366205212247 -0.923879532511)
	I98 : dAve : 	(0.0131868107536 0.0246707876912 -0.0490873852123) : omega : 	0.0575094490319 : d : 	(0.180395721254 0.337496656517 -0.923879532511)
	I99 : dAve : 	(0.0177464617977 0.0216241262672 -0.0490873852123) : omega : 	0.0575094490319 : d : 	(0.242771799453 0.295818293547 -0.923879532511)
	I100 : dAve : 	(0.0216241262672 0.0177464617977 -0.0490873852123) : omega : 	0.0575094490319 : d : 	(0.295818293547 0.242771799453 -0.923879532511)
	I101 : dAve : 	(0.0246707876912 0.0131868107536 -0.0490873852123) : omega : 	0.0575094490319 : d : 	(0.337496656517 0.180395721254 -0.923879532511)
	I102 : dAve : 	(0.0267693645798 0.00812039796756 -0.0490873852123) : omega : 	0.0575094490319 : d : 	(0.366205212247 0.111087136655 -0.923879532511)
	I103 : dAve : 	(0.0278392098 0.00274192284156 -0.0490873852123) : omega : 	0.0575094490319 : d : 	(0.38084070704 0.0375095356919 -0.923879532511)
	I104 : dAve : 	(0.0278392098 -0.00274192284156 -0.0490873852123) : omega : 	0.0575094490319 : d : 	(0.38084070704 -0.0375095356919 -0.923879532511)
	I105 : dAve : 	(0.0267693645798 -0.00812039796756 -0.0490873852123) : omega : 	0.0575094490319 : d : 	(0.366205212247 -0.111087136655 -0.923879532511)
	I106 : dAve : 	(0.0246707876912 -0.0131868107536 -0.0490873852123) : omega : 	0.0575094490319 : d : 	(0.337496656517 -0.180395721254 -0.923879532511)
	I107 : dAve : 	(0.0216241262672 -0.0177464617977 -0.0490873852123) : omega : 	0.0575094490319 : d : 	(0.295818293547 -0.242771799453 -0.923879532511)
	I108 : dAve : 	(0.0177464617977 -0.0216241262672 -0.0490873852123) : omega : 	0.0575094490319 : d : 	(0.242771799453 -0.295818293547 -0.923879532511)
	I109 : dAve : 	(0.0131868107536 -0.0246707876912 -0.0490873852123) : omega : 	0.0575094490319 : d : 	(0.180395721254 -0.337496656517 -0.923879532511)
	I110 : dAve : 	(0.00812039796756 -0.0267693645798 -0.0490873852123) : omega : 	0.0575094490319 : d : 	(0.111087136655 -0.366205212247 -0.923879532511)
	I111 : dAve : 	(0.00274192284156 -0.0278392098 -0.0490873852123) : omega : 	0.0575094490319 : d : 	(0.0375095356919 -0.38084070704 -0.923879532511)
	I112 : dAve : 	(-0.00274192284156 -0.0278392098 -0.0490873852123) : omega : 	0.0575094490319 : d : 	(-0.0375095356919 -0.38084070704 -0.923879532511)
	I113 : dAve : 	(-0.00812039796756 -0.0267693645798 -0.0490873852123) : omega : 	0.0575094490319 : d : 	(-0.111087136655 -0.366205212247 -0.923879532511)
	I114 : dAve : 	(-0.0131868107536 -0.0246707876912 -0.0490873852123) : omega : 	0.0575094490319 : d : 	(-0.180395721254 -0.337496656517 -0.923879532511)
	I115 : dAve : 	(-0.0177464617977 -0.0216241262672 -0.0490873852123) : omega : 	0.0575094490319 : d : 	(-0.242771799453 -0.295818293547 -0.923879532511)
	I116 : dAve : 	(-0.0216241262672 -0.0177464617977 -0.0490873852123) : omega : 	0.0575094490319 : d : 	(-0.295818293547 -0.242771799453 -0.923879532511)
	I117 : dAve : 	(-0.0246707876912 -0.0131868107536 -0.0490873852123) : omega : 	0.0575094490319 : d : 	(-0.337496656517 -0.180395721254 -0.923879532511)
	I118 : dAve : 	(-0.0267693645798 -0.00812039796756 -0.0490873852123) : omega : 	0.0575094490319 : d : 	(-0.366205212247 -0.111087136655 -0.923879532511)
	I119 : dAve : 	(-0.0278392098 -0.00274192284156 -0.0490873852123) : omega : 	0.0575094490319 : d : 	(-0.38084070704 -0.0375095356919 -0.923879532511)
	I120 : dAve : 	(-0.0278392098 0.00274192284156 -0.0490873852123) : omega : 	0.0575094490319 : d : 	(-0.38084070704 0.0375095356919 -0.923879532511)
	I121 : dAve : 	(-0.0267693645798 0.00812039796756 -0.0490873852123) : omega : 	0.0575094490319 : d : 	(-0.366205212247 0.111087136655 -0.923879532511)
	I122 : dAve : 	(-0.0246707876912 0.0131868107536 -0.0490873852123) : omega : 	0.0575094490319 : d : 	(-0.337496656517 0.180395721254 -0.923879532511)
	I123 : dAve : 	(-0.0216241262672 0.0177464617977 -0.0490873852123) : omega : 	0.0575094490319 : d : 	(-0.295818293547 0.242771799453 -0.923879532511)
	I124 : dAve : 	(-0.0177464617977 0.0216241262672 -0.0490873852123) : omega : 	0.0575094490319 : d : 	(-0.242771799453 0.295818293547 -0.923879532511)
	I125 : dAve : 	(-0.0131868107536 0.0246707876912 -0.0490873852123) : omega : 	0.0575094490319 : d : 	(-0.180395721254 0.337496656517 -0.923879532511)
	I126 : dAve : 	(-0.00812039796756 0.0267693645798 -0.0490873852123) : omega : 	0.0575094490319 : d : 	(-0.111087136655 0.366205212247 -0.923879532511)
	I127 : dAve : 	(-0.00274192284156 0.0278392098 -0.0490873852123) : omega : 	0.0575094490319 : d : 	(-0.0375095356919 0.38084070704 -0.923879532511)
Total omega : 12.5663706144

Courant Number mean: 0 max: 0

Starting time loop

Sampled set:
    data -> csv

Sampled set:
    data -> csv

Sampled surface:
    yNormal -> ensight
        sampledCuttingPlane: yNormal : plane:(0 1 0) (0 0 0) offsets:(0)

Sampled surface:
    zNormal -> ensight
        sampledCuttingPlane: zNormal : plane:(0 0 1) (0 0 0) offsets:(0)

Sampled surface:
    patchAll -> ensight
        sampledPatch: patchAll : patches:(".*WW.*")

deltaT = 1
Time = 1

PIMPLE: iteration 1
Radiation solver iter: 0
DILUPBiCGStab:  Solving for ILambda_0_0, Initial residual = 1, Final residual = 5.77638682157e-64, No Iterations 2
DILUPBiCGStab:  Solving for ILambda_1_0, Initial residual = 1, Final residual = 3.36334189222e-64, No Iterations 2
DILUPBiCGStab:  Solving for ILambda_2_0, Initial residual = 1, Final residual = 3.66842143724e-64, No Iterations 2
DILUPBiCGStab:  Solving for ILambda_3_0, Initial residual = 1, Final residual = 6.57765936714e-64, No Iterations 2
DILUPBiCGStab:  Solving for ILambda_4_0, Initial residual = 1, Final residual = 4.0216882109e-64, No Iterations 2
DILUPBiCGStab:  Solving for ILambda_5_0, Initial residual = 1, Final residual = 3.83706982903e-64, No Iterations 2
DILUPBiCGStab:  Solving for ILambda_6_0, Initial residual = 1, Final residual = 3.43870728973e-64, No Iterations 2
DILUPBiCGStab:  Solving for ILambda_7_0, Initial residual = 1, Final residual = 2.8381750348e-64, No Iterations 2
DILUPBiCGStab:  Solving for ILambda_8_0, Initial residual = 1, Final residual = 9.12137801704e-62, No Iterations 14
DILUPBiCGStab:  Solving for ILambda_9_0, Initial residual = 1, Final residual = 2.58757006959e-61, No Iterations 18
DILUPBiCGStab:  Solving for ILambda_10_0, Initial residual = 1, Final residual = 2.090003247e-61, No Iterations 20
DILUPBiCGStab:  Solving for ILambda_11_0, Initial residual = 1, Final residual = 4.96401033061e-62, No Iterations 21
DILUPBiCGStab:  Solving for ILambda_12_0, Initial residual = 1, Final residual = 9.89452092156e-62, No Iterations 21
DILUPBiCGStab:  Solving for ILambda_13_0, Initial residual = 1, Final residual = 3.15049138544e-61, No Iterations 20
DILUPBiCGStab:  Solving for ILambda_14_0, Initial residual = 1, Final residual = 3.30968386501e-61, No Iterations 18
DILUPBiCGStab:  Solving for ILambda_15_0, Initial residual = 1, Final residual = 6.48640823587e-61, No Iterations 15
DILUPBiCGStab:  Solving for ILambda_16_0, Initial residual = 1, Final residual = 9.09181428153e-61, No Iterations 14
DILUPBiCGStab:  Solving for ILambda_17_0, Initial residual = 1, Final residual = 4.6835664124e-61, No Iterations 14
DILUPBiCGStab:  Solving for ILambda_18_0, Initial residual = 1, Final residual = 9.46281168176e-61, No Iterations 14
DILUPBiCGStab:  Solving for ILambda_19_0, Initial residual = 1, Final residual = 1.34185613867e-61, No Iterations 15
DILUPBiCGStab:  Solving for ILambda_20_0, Initial residual = 1, Final residual = 4.3423359126e-62, No Iterations 15
DILUPBiCGStab:  Solving for ILambda_21_0, Initial residual = 1, Final residual = 5.83493851275e-63, No Iterations 15
DILUPBiCGStab:  Solving for ILambda_22_0, Initial residual = 1, Final residual = 5.66266955187e-61, No Iterations 14
DILUPBiCGStab:  Solving for ILambda_23_0, Initial residual = 1, Final residual = 1.19598233836e-61, No Iterations 14
DILUPBiCGStab:  Solving for ILambda_24_0, Initial residual = 1, Final residual = 9.70092574561e-61, No Iterations 15
DILUPBiCGStab:  Solving for ILambda_25_0, Initial residual = 1, Final residual = 2.14932346075e-61, No Iterations 18
DILUPBiCGStab:  Solving for ILambda_26_0, Initial residual = 1, Final residual = 3.00696736602e-61, No Iterations 20
DILUPBiCGStab:  Solving for ILambda_27_0, Initial residual = 1, Final residual = 8.64492156322e-62, No Iterations 21
DILUPBiCGStab:  Solving for ILambda_28_0, Initial residual = 1, Final residual = 4.70026183355e-62, No Iterations 21
DILUPBiCGStab:  Solving for ILambda_29_0, Initial residual = 1, Final residual = 1.6782924209e-61, No Iterations 20
DILUPBiCGStab:  Solving for ILambda_30_0, Initial residual = 1, Final residual = 1.76397210831e-61, No Iterations 18
DILUPBiCGStab:  Solving for ILambda_31_0, Initial residual = 1, Final residual = 8.31698737499e-62, No Iterations 14
DILUPBiCGStab:  Solving for ILambda_32_0, Initial residual = 1, Final residual = 5.90307045256e-64, No Iterations 2
DILUPBiCGStab:  Solving for ILambda_33_0, Initial residual = 1, Final residual = 4.95517817424e-64, No Iterations 2
DILUPBiCGStab:  Solving for ILambda_34_0, Initial residual = 1, Final residual = 2.91566815216e-64, No Iterations 2
DILUPBiCGStab:  Solving for ILambda_35_0, Initial residual = 1, Final residual = 2.1163610506e-64, No Iterations 2
DILUPBiCGStab:  Solving for ILambda_36_0, Initial residual = 1, Final residual = 7.94801763348e-64, No Iterations 2
DILUPBiCGStab:  Solving for ILambda_37_0, Initial residual = 1, Final residual = 2.51275121549e-64, No Iterations 2
DILUPBiCGStab:  Solving for ILambda_38_0, Initial residual = 1, Final residual = 2.25667729574e-64, No Iterations 2
DILUPBiCGStab:  Solving for ILambda_39_0, Initial residual = 1, Final residual = 2.2598469405e-64, No Iterations 2
DILUPBiCGStab:  Solving for ILambda_40_0, Initial residual = 1, Final residual = 7.4193994073e-62, No Iterations 18
DILUPBiCGStab:  Solving for ILambda_41_0, Initial residual = 1, Final residual = 2.62776182666e-61, No Iterations 23
DILUPBiCGStab:  Solving for ILambda_42_0, Initial residual = 1, Final residual = 3.5671454744e-61, No Iterations 26
DILUPBiCGStab:  Solving for ILambda_43_0, Initial residual = 1, Final residual = 9.39235602758e-61, No Iterations 27
DILUPBiCGStab:  Solving for ILambda_44_0, Initial residual = 1, Final residual = 3.45853489258e-61, No Iterations 28
DILUPBiCGStab:  Solving for ILambda_45_0, Initial residual = 1, Final residual = 7.64704671818e-63, No Iterations 27
DILUPBiCGStab:  Solving for ILambda_46_0, Initial residual = 1, Final residual = 3.70763957185e-61, No Iterations 23
DILUPBiCGStab:  Solving for ILambda_47_0, Initial residual = 1, Final residual = 4.23850574883e-61, No Iterations 19
DILUPBiCGStab:  Solving for ILambda_48_0, Initial residual = 1, Final residual = 2.20571956383e-64, No Iterations 14
DILUPBiCGStab:  Solving for ILambda_49_0, Initial residual = 1, Final residual = 3.38858118045e-62, No Iterations 15
DILUPBiCGStab:  Solving for ILambda_50_0, Initial residual = 1, Final residual = 2.28210799982e-63, No Iterations 15
DILUPBiCGStab:  Solving for ILambda_51_0, Initial residual = 1, Final residual = 7.73735009361e-61, No Iterations 16
DILUPBiCGStab:  Solving for ILambda_52_0, Initial residual = 1, Final residual = 6.5150774819e-62, No Iterations 16
DILUPBiCGStab:  Solving for ILambda_53_0, Initial residual = 1, Final residual = 1.56090361152e-61, No Iterations 15
DILUPBiCGStab:  Solving for ILambda_54_0, Initial residual = 1, Final residual = 1.00524379071e-62, No Iterations 15
DILUPBiCGStab:  Solving for ILambda_55_0, Initial residual = 1, Final residual = 5.20642318438e-62, No Iterations 14
DILUPBiCGStab:  Solving for ILambda_56_0, Initial residual = 1, Final residual = 1.59167090081e-62, No Iterations 19
DILUPBiCGStab:  Solving for ILambda_57_0, Initial residual = 1, Final residual = 3.75932840996e-61, No Iterations 23
DILUPBiCGStab:  Solving for ILambda_58_0, Initial residual = 1, Final residual = 7.64858442192e-63, No Iterations 27
DILUPBiCGStab:  Solving for ILambda_59_0, Initial residual = 1, Final residual = 3.44249890324e-61, No Iterations 28
DILUPBiCGStab:  Solving for ILambda_60_0, Initial residual = 1, Final residual = 9.39675313754e-61, No Iterations 27
DILUPBiCGStab:  Solving for ILambda_61_0, Initial residual = 1, Final residual = 3.56159440698e-61, No Iterations 26
DILUPBiCGStab:  Solving for ILambda_62_0, Initial residual = 1, Final residual = 1.56409907123e-61, No Iterations 23
DILUPBiCGStab:  Solving for ILambda_63_0, Initial residual = 1, Final residual = 7.3984312096e-62, No Iterations 18
DILUPBiCGStab:  Solving for ILambda_64_0, Initial residual = 1, Final residual = 4.16138301518e-62, No Iterations 15
DILUPBiCGStab:  Solving for ILambda_65_0, Initial residual = 1, Final residual = 6.73726070683e-61, No Iterations 15
DILUPBiCGStab:  Solving for ILambda_66_0, Initial residual = 1, Final residual = 7.99266763516e-61, No Iterations 15
DILUPBiCGStab:  Solving for ILambda_67_0, Initial residual = 1, Final residual = 2.26790188153e-62, No Iterations 16
DILUPBiCGStab:  Solving for ILambda_68_0, Initial residual = 1, Final residual = 3.25785877338e-61, No Iterations 16
DILUPBiCGStab:  Solving for ILambda_69_0, Initial residual = 1, Final residual = 1.62566127242e-61, No Iterations 16
DILUPBiCGStab:  Solving for ILambda_70_0, Initial residual = 1, Final residual = 1.166359107e-61, No Iterations 15
DILUPBiCGStab:  Solving for ILambda_71_0, Initial residual = 1, Final residual = 1.49844480053e-61, No Iterations 15
DILUPBiCGStab:  Solving for ILambda_72_0, Initial residual = 1, Final residual = 4.17395509498e-61, No Iterations 19
DILUPBiCGStab:  Solving for ILambda_73_0, Initial residual = 1, Final residual = 3.97322636666e-61, No Iterations 23
DILUPBiCGStab:  Solving for ILambda_74_0, Initial residual = 1, Final residual = 9.38589918669e-63, No Iterations 27
DILUPBiCGStab:  Solving for ILambda_75_0, Initial residual = 1, Final residual = 2.32431468849e-61, No Iterations 28
DILUPBiCGStab:  Solving for ILambda_76_0, Initial residual = 1, Final residual = 9.6614978541e-62, No Iterations 28
DILUPBiCGStab:  Solving for ILambda_77_0, Initial residual = 1, Final residual = 3.90082441825e-61, No Iterations 26
DILUPBiCGStab:  Solving for ILambda_78_0, Initial residual = 1, Final residual = 1.30908446492e-61, No Iterations 23
DILUPBiCGStab:  Solving for ILambda_79_0, Initial residual = 1, Final residual = 5.48692381685e-62, No Iterations 18
DILUPBiCGStab:  Solving for ILambda_80_0, Initial residual = 1, Final residual = 4.47186036413e-64, No Iterations 2
DILUPBiCGStab:  Solving for ILambda_81_0, Initial residual = 1, Final residual = 2.85049639475e-64, No Iterations 2
DILUPBiCGStab:  Solving for ILambda_82_0, Initial residual = 1, Final residual = 4.67863409593e-64, No Iterations 2
DILUPBiCGStab:  Solving for ILambda_83_0, Initial residual = 1, Final residual = 2.39215424862e-64, No Iterations 2
DILUPBiCGStab:  Solving for ILambda_84_0, Initial residual = 1, Final residual = 3.00713339014e-64, No Iterations 2
DILUPBiCGStab:  Solving for ILambda_85_0, Initial residual = 1, Final residual = 8.23194765647e-64, No Iterations 2
DILUPBiCGStab:  Solving for ILambda_86_0, Initial residual = 1, Final residual = 8.54658595806e-64, No Iterations 2
DILUPBiCGStab:  Solving for ILambda_87_0, Initial residual = 1, Final residual = 2.02417682019e-64, No Iterations 2
DILUPBiCGStab:  Solving for ILambda_88_0, Initial residual = 1, Final residual = 5.48185898312e-62, No Iterations 18
DILUPBiCGStab:  Solving for ILambda_89_0, Initial residual = 1, Final residual = 1.31503388153e-61, No Iterations 23
DILUPBiCGStab:  Solving for ILambda_90_0, Initial residual = 1, Final residual = 3.92906981072e-61, No Iterations 26
DILUPBiCGStab:  Solving for ILambda_91_0, Initial residual = 1, Final residual = 9.66185245729e-62, No Iterations 28
DILUPBiCGStab:  Solving for ILambda_92_0, Initial residual = 1, Final residual = 2.32401758262e-61, No Iterations 28
DILUPBiCGStab:  Solving for ILambda_93_0, Initial residual = 1, Final residual = 9.39030483e-63, No Iterations 27
DILUPBiCGStab:  Solving for ILambda_94_0, Initial residual = 1, Final residual = 4.00164914044e-61, No Iterations 23
DILUPBiCGStab:  Solving for ILambda_95_0, Initial residual = 1, Final residual = 4.0807731059e-61, No Iterations 19
DILUPBiCGStab:  Solving for ILambda_96_0, Initial residual = 1, Final residual = 1.38700355572e-61, No Iterations 15
DILUPBiCGStab:  Solving for ILambda_97_0, Initial residual = 1, Final residual = 3.64113624082e-62, No Iterations 15
DILUPBiCGStab:  Solving for ILambda_98_0, Initial residual = 1, Final residual = 4.83353119438e-61, No Iterations 15
DILUPBiCGStab:  Solving for ILambda_99_0, Initial residual = 1, Final residual = 5.33807459355e-61, No Iterations 15
DILUPBiCGStab:  Solving for ILambda_100_0, Initial residual = 1, Final residual = 5.58428974956e-62, No Iterations 16
DILUPBiCGStab:  Solving for ILambda_101_0, Initial residual = 1, Final residual = 2.72803511097e-62, No Iterations 15
DILUPBiCGStab:  Solving for ILambda_102_0, Initial residual = 1, Final residual = 2.60448075724e-62, No Iterations 16
DILUPBiCGStab:  Solving for ILambda_103_0, Initial residual = 1, Final residual = 6.83508888641e-61, No Iterations 15
DILUPBiCGStab:  Solving for ILambda_104_0, Initial residual = 1, Final residual = 4.63504792234e-61, No Iterations 16
DILUPBiCGStab:  Solving for ILambda_105_0, Initial residual = 1, Final residual = 8.69251720298e-61, No Iterations 18
DILUPBiCGStab:  Solving for ILambda_106_0, Initial residual = 1, Final residual = 3.04235414308e-62, No Iterations 20
DILUPBiCGStab:  Solving for ILambda_107_0, Initial residual = 1, Final residual = 1.52913053457e-61, No Iterations 21
DILUPBiCGStab:  Solving for ILambda_108_0, Initial residual = 1, Final residual = 1.39711128223e-61, No Iterations 21
DILUPBiCGStab:  Solving for ILambda_109_0, Initial residual = 1, Final residual = 6.41298126651e-61, No Iterations 20
DILUPBiCGStab:  Solving for ILambda_110_0, Initial residual = 1, Final residual = 2.78159303649e-61, No Iterations 18
DILUPBiCGStab:  Solving for ILambda_111_0, Initial residual = 1, Final residual = 1.59646572154e-61, No Iterations 14
DILUPBiCGStab:  Solving for ILambda_112_0, Initial residual = 1, Final residual = 3.23182088878e-64, No Iterations 2
DILUPBiCGStab:  Solving for ILambda_113_0, Initial residual = 1, Final residual = 3.49104087241e-64, No Iterations 2
DILUPBiCGStab:  Solving for ILambda_114_0, Initial residual = 1, Final residual = 6.00340623889e-64, No Iterations 2
DILUPBiCGStab:  Solving for ILambda_115_0, Initial residual = 1, Final residual = 8.94500316137e-64, No Iterations 2
DILUPBiCGStab:  Solving for ILambda_116_0, Initial residual = 1, Final residual = 3.14864442245e-64, No Iterations 2
DILUPBiCGStab:  Solving for ILambda_117_0, Initial residual = 1, Final residual = 5.20504809885e-64, No Iterations 2
DILUPBiCGStab:  Solving for ILambda_118_0, Initial residual = 1, Final residual = 3.43437068184e-64, No Iterations 2
DILUPBiCGStab:  Solving for ILambda_119_0, Initial residual = 1, Final residual = 9.05250389927e-64, No Iterations 2
DILUPBiCGStab:  Solving for ILambda_120_0, Initial residual = 1, Final residual = 1.75239765705e-61, No Iterations 14
DILUPBiCGStab:  Solving for ILambda_121_0, Initial residual = 1, Final residual = 2.77364753985e-61, No Iterations 18
DILUPBiCGStab:  Solving for ILambda_122_0, Initial residual = 1, Final residual = 8.50149776591e-61, No Iterations 20
DILUPBiCGStab:  Solving for ILambda_123_0, Initial residual = 1, Final residual = 1.50106314044e-61, No Iterations 21
DILUPBiCGStab:  Solving for ILambda_124_0, Initial residual = 1, Final residual = 2.65724828095e-61, No Iterations 21
DILUPBiCGStab:  Solving for ILambda_125_0, Initial residual = 1, Final residual = 4.13738228327e-62, No Iterations 20
DILUPBiCGStab:  Solving for ILambda_126_0, Initial residual = 1, Final residual = 9.73667138929e-61, No Iterations 18
DILUPBiCGStab:  Solving for ILambda_127_0, Initial residual = 1, Final residual = 4.45419516726e-61, No Iterations 16
Radiation solver iter: 1
DILUPBiCGStab:  Solving for ILambda_0_0, Initial residual = 2.84160068287e-16, Final residual = 5.67550726342e-64, No Iterations 2
DILUPBiCGStab:  Solving for ILambda_1_0, Initial residual = 2.99040292349e-16, Final residual = 5.64828797731e-64, No Iterations 2
DILUPBiCGStab:  Solving for ILambda_2_0, Initial residual = 2.99605914901e-16, Final residual = 6.00127635073e-64, No Iterations 2
DILUPBiCGStab:  Solving for ILambda_3_0, Initial residual = 3.33630286881e-16, Final residual = 6.93031724436e-64, No Iterations 2
DILUPBiCGStab:  Solving for ILambda_4_0, Initial residual = 3.27625985944e-16, Final residual = 6.62731935656e-64, No Iterations 2
DILUPBiCGStab:  Solving for ILambda_5_0, Initial residual = 3.08916932297e-16, Final residual = 6.14869713419e-64, No Iterations 2
DILUPBiCGStab:  Solving for ILambda_6_0, Initial residual = 2.95385500474e-16, Final residual = 1.0897770706e-63, No Iterations 2
DILUPBiCGStab:  Solving for ILambda_7_0, Initial residual = 2.83028823182e-16, Final residual = 4.96340047186e-64, No Iterations 2
DILUPBiCGStab:  Solving for ILambda_8_0, Initial residual = 5.70278060792e-16, Final residual = 6.02225296163e-62, No Iterations 11
DILUPBiCGStab:  Solving for ILambda_9_0, Initial residual = 6.4863853897e-16, Final residual = 1.28481032138e-61, No Iterations 13
DILUPBiCGStab:  Solving for ILambda_10_0, Initial residual = 6.85099438867e-16, Final residual = 4.53870409826e-61, No Iterations 14
DILUPBiCGStab:  Solving for ILambda_11_0, Initial residual = 6.62213480221e-16, Final residual = 2.36310578166e-62, No Iterations 15
DILUPBiCGStab:  Solving for ILambda_12_0, Initial residual = 6.65346158971e-16, Final residual = 1.10088891977e-61, No Iterations 15
DILUPBiCGStab:  Solving for ILambda_13_0, Initial residual = 6.65520196679e-16, Final residual = 1.71058572467e-61, No Iterations 15
DILUPBiCGStab:  Solving for ILambda_14_0, Initial residual = 6.59950990012e-16, Final residual = 1.01851076049e-61, No Iterations 14
DILUPBiCGStab:  Solving for ILambda_15_0, Initial residual = 6.67173554908e-16, Final residual = 7.98648489356e-61, No Iterations 12
DILUPBiCGStab:  Solving for ILambda_16_0, Initial residual = 5.9194575548e-16, Final residual = 1.78891035698e-61, No Iterations 9
DILUPBiCGStab:  Solving for ILambda_17_0, Initial residual = 6.01952923709e-16, Final residual = 4.9259692303e-62, No Iterations 10
DILUPBiCGStab:  Solving for ILambda_18_0, Initial residual = 7.62328671941e-16, Final residual = 1.4937973868e-62, No Iterations 10
DILUPBiCGStab:  Solving for ILambda_19_0, Initial residual = 6.82358344961e-16, Final residual = 6.13740783984e-61, No Iterations 11
DILUPBiCGStab:  Solving for ILambda_20_0, Initial residual = 6.83794156054e-16, Final residual = 2.14861126873e-62, No Iterations 11
DILUPBiCGStab:  Solving for ILambda_21_0, Initial residual = 6.76223515742e-16, Final residual = 4.25158420542e-61, No Iterations 10
DILUPBiCGStab:  Solving for ILambda_22_0, Initial residual = 6.54120726783e-16, Final residual = 7.52775542053e-63, No Iterations 10
DILUPBiCGStab:  Solving for ILambda_23_0, Initial residual = 5.90727491521e-16, Final residual = 3.71185069617e-63, No Iterations 10
DILUPBiCGStab:  Solving for ILambda_24_0, Initial residual = 7.4205327892e-16, Final residual = 2.83859463859e-62, No Iterations 12
DILUPBiCGStab:  Solving for ILambda_25_0, Initial residual = 6.42155634335e-16, Final residual = 1.48896348915e-61, No Iterations 14
DILUPBiCGStab:  Solving for ILambda_26_0, Initial residual = 6.6878340371e-16, Final residual = 4.93433431329e-61, No Iterations 15
DILUPBiCGStab:  Solving for ILambda_27_0, Initial residual = 7.18862754284e-16, Final residual = 1.54065261749e-61, No Iterations 15
DILUPBiCGStab:  Solving for ILambda_28_0, Initial residual = 6.47550803293e-16, Final residual = 3.6725366976e-62, No Iterations 15
DILUPBiCGStab:  Solving for ILambda_29_0, Initial residual = 6.88841249596e-16, Final residual = 3.98026977845e-61, No Iterations 14
DILUPBiCGStab:  Solving for ILambda_30_0, Initial residual = 6.88101589336e-16, Final residual = 1.7815912456e-61, No Iterations 13
DILUPBiCGStab:  Solving for ILambda_31_0, Initial residual = 7.03764983086e-16, Final residual = 2.52688551859e-61, No Iterations 11
DILUPBiCGStab:  Solving for ILambda_32_0, Initial residual = 8.23720473558e-16, Final residual = 1.23820652938e-63, No Iterations 2
DILUPBiCGStab:  Solving for ILambda_33_0, Initial residual = 9.6738860179e-16, Final residual = 1.3318173938e-63, No Iterations 2
DILUPBiCGStab:  Solving for ILambda_34_0, Initial residual = 1.01507493387e-15, Final residual = 1.30279124392e-63, No Iterations 2
DILUPBiCGStab:  Solving for ILambda_35_0, Initial residual = 1.02342874387e-15, Final residual = 1.19676829065e-63, No Iterations 2
DILUPBiCGStab:  Solving for ILambda_36_0, Initial residual = 1.01611916012e-15, Final residual = 1.18297254624e-63, No Iterations 2
DILUPBiCGStab:  Solving for ILambda_37_0, Initial residual = 1.0021091246e-15, Final residual = 1.22176186138e-63, No Iterations 2
DILUPBiCGStab:  Solving for ILambda_38_0, Initial residual = 1.00698218044e-15, Final residual = 1.2333587693e-63, No Iterations 2
DILUPBiCGStab:  Solving for ILambda_39_0, Initial residual = 8.91769217517e-16, Final residual = 1.09103753313e-63, No Iterations 2
DILUPBiCGStab:  Solving for ILambda_40_0, Initial residual = 1.58992148451e-15, Final residual = 6.3992751391e-62, No Iterations 13
DILUPBiCGStab:  Solving for ILambda_41_0, Initial residual = 1.86037608327e-15, Final residual = 1.58964984528e-61, No Iterations 17
DILUPBiCGStab:  Solving for ILambda_42_0, Initial residual = 1.86194242264e-15, Final residual = 6.3845903183e-61, No Iterations 19
DILUPBiCGStab:  Solving for ILambda_43_0, Initial residual = 2.01996866181e-15, Final residual = 8.10822403606e-61, No Iterations 20
DILUPBiCGStab:  Solving for ILambda_44_0, Initial residual = 1.97001983952e-15, Final residual = 2.3688514385e-61, No Iterations 20
DILUPBiCGStab:  Solving for ILambda_45_0, Initial residual = 1.9037984915e-15, Final residual = 6.28265314886e-61, No Iterations 19
DILUPBiCGStab:  Solving for ILambda_46_0, Initial residual = 1.90362445379e-15, Final residual = 1.01006459492e-61, No Iterations 18
DILUPBiCGStab:  Solving for ILambda_47_0, Initial residual = 1.7932845467e-15, Final residual = 3.95051067938e-62, No Iterations 15
DILUPBiCGStab:  Solving for ILambda_48_0, Initial residual = 1.78345141618e-15, Final residual = 2.53767822626e-61, No Iterations 9
DILUPBiCGStab:  Solving for ILambda_49_0, Initial residual = 1.78675813264e-15, Final residual = 9.44640202851e-63, No Iterations 10
DILUPBiCGStab:  Solving for ILambda_50_0, Initial residual = 1.70565656055e-15, Final residual = 2.51237255639e-63, No Iterations 9
DILUPBiCGStab:  Solving for ILambda_51_0, Initial residual = 1.84488672722e-15, Final residual = 2.21422947375e-61, No Iterations 11
DILUPBiCGStab:  Solving for ILambda_52_0, Initial residual = 1.77048560691e-15, Final residual = 4.97002494771e-61, No Iterations 10
DILUPBiCGStab:  Solving for ILambda_53_0, Initial residual = 1.82704786212e-15, Final residual = 1.49404366172e-63, No Iterations 10
DILUPBiCGStab:  Solving for ILambda_54_0, Initial residual = 1.8401877091e-15, Final residual = 3.09830405751e-61, No Iterations 10
DILUPBiCGStab:  Solving for ILambda_55_0, Initial residual = 1.76526447566e-15, Final residual = 4.6012158323e-61, No Iterations 9
DILUPBiCGStab:  Solving for ILambda_56_0, Initial residual = 1.82243586285e-15, Final residual = 1.47124494276e-62, No Iterations 15
DILUPBiCGStab:  Solving for ILambda_57_0, Initial residual = 1.88735192806e-15, Final residual = 5.91520146466e-61, No Iterations 18
DILUPBiCGStab:  Solving for ILambda_58_0, Initial residual = 1.97297848056e-15, Final residual = 1.05774484498e-61, No Iterations 19
DILUPBiCGStab:  Solving for ILambda_59_0, Initial residual = 1.98481304473e-15, Final residual = 7.89038915156e-62, No Iterations 20
DILUPBiCGStab:  Solving for ILambda_60_0, Initial residual = 2.00474036233e-15, Final residual = 1.65265281238e-61, No Iterations 20
DILUPBiCGStab:  Solving for ILambda_61_0, Initial residual = 1.87342891139e-15, Final residual = 1.9990292633e-61, No Iterations 19
DILUPBiCGStab:  Solving for ILambda_62_0, Initial residual = 1.7503842516e-15, Final residual = 5.36469693925e-62, No Iterations 17
DILUPBiCGStab:  Solving for ILambda_63_0, Initial residual = 1.60584593482e-15, Final residual = 2.80592318818e-61, No Iterations 13
DILUPBiCGStab:  Solving for ILambda_64_0, Initial residual = 1.45773984503e-15, Final residual = 1.25537565348e-62, No Iterations 10
DILUPBiCGStab:  Solving for ILambda_65_0, Initial residual = 1.69356093982e-15, Final residual = 1.10226659273e-61, No Iterations 9
DILUPBiCGStab:  Solving for ILambda_66_0, Initial residual = 1.53945054909e-15, Final residual = 3.85010996673e-62, No Iterations 10
DILUPBiCGStab:  Solving for ILambda_67_0, Initial residual = 1.56486005451e-15, Final residual = 5.33729991659e-61, No Iterations 10
DILUPBiCGStab:  Solving for ILambda_68_0, Initial residual = 1.68781769545e-15, Final residual = 9.28942666088e-62, No Iterations 10
DILUPBiCGStab:  Solving for ILambda_69_0, Initial residual = 1.6825965642e-15, Final residual = 5.44583934512e-62, No Iterations 11
DILUPBiCGStab:  Solving for ILambda_70_0, Initial residual = 1.72514878389e-15, Final residual = 2.39375107637e-61, No Iterations 10
DILUPBiCGStab:  Solving for ILambda_71_0, Initial residual = 1.5500668493e-15, Final residual = 8.01895592564e-62, No Iterations 9
DILUPBiCGStab:  Solving for ILambda_72_0, Initial residual = 1.62638238441e-15, Final residual = 1.36934396765e-61, No Iterations 15
DILUPBiCGStab:  Solving for ILambda_73_0, Initial residual = 1.84993382077e-15, Final residual = 7.16476401139e-61, No Iterations 18
DILUPBiCGStab:  Solving for ILambda_74_0, Initial residual = 1.87499525077e-15, Final residual = 1.8511136116e-61, No Iterations 19
DILUPBiCGStab:  Solving for ILambda_75_0, Initial residual = 1.91493690483e-15, Final residual = 2.39182368519e-61, No Iterations 20
DILUPBiCGStab:  Solving for ILambda_76_0, Initial residual = 1.88909230514e-15, Final residual = 1.69290509515e-61, No Iterations 20
DILUPBiCGStab:  Solving for ILambda_77_0, Initial residual = 1.9404334291e-15, Final residual = 3.2039922263e-61, No Iterations 19
DILUPBiCGStab:  Solving for ILambda_78_0, Initial residual = 1.81425609056e-15, Final residual = 5.68172348873e-62, No Iterations 17
DILUPBiCGStab:  Solving for ILambda_79_0, Initial residual = 1.57216963826e-15, Final residual = 1.33105342233e-61, No Iterations 13
DILUPBiCGStab:  Solving for ILambda_80_0, Initial residual = 7.99529232099e-16, Final residual = 1.06684543928e-63, No Iterations 2
DILUPBiCGStab:  Solving for ILambda_81_0, Initial residual = 9.21529665643e-16, Final residual = 1.28815130283e-63, No Iterations 2
DILUPBiCGStab:  Solving for ILambda_82_0, Initial residual = 1.02551719637e-15, Final residual = 1.33580686337e-63, No Iterations 2
DILUPBiCGStab:  Solving for ILambda_83_0, Initial residual = 1.01855568804e-15, Final residual = 1.29701281388e-63, No Iterations 2
DILUPBiCGStab:  Solving for ILambda_84_0, Initial residual = 1.07172420794e-15, Final residual = 1.30094871744e-63, No Iterations 2
DILUPBiCGStab:  Solving for ILambda_85_0, Initial residual = 9.19006118872e-16, Final residual = 1.19788161434e-63, No Iterations 2
DILUPBiCGStab:  Solving for ILambda_86_0, Initial residual = 8.93770651163e-16, Final residual = 1.16728162731e-63, No Iterations 2
DILUPBiCGStab:  Solving for ILambda_87_0, Initial residual = 7.68811576578e-16, Final residual = 1.01371546597e-63, No Iterations 2
DILUPBiCGStab:  Solving for ILambda_88_0, Initial residual = 1.57887009003e-15, Final residual = 3.06368343013e-63, No Iterations 14
DILUPBiCGStab:  Solving for ILambda_89_0, Initial residual = 1.81007918556e-15, Final residual = 4.06578430668e-61, No Iterations 17
DILUPBiCGStab:  Solving for ILambda_90_0, Initial residual = 1.94826512598e-15, Final residual = 7.85768120481e-61, No Iterations 19
DILUPBiCGStab:  Solving for ILambda_91_0, Initial residual = 1.88430626816e-15, Final residual = 1.89204924434e-61, No Iterations 20
DILUPBiCGStab:  Solving for ILambda_92_0, Initial residual = 1.93799690118e-15, Final residual = 5.87162678385e-61, No Iterations 20
DILUPBiCGStab:  Solving for ILambda_93_0, Initial residual = 1.80085518701e-15, Final residual = 7.98622257306e-62, No Iterations 20
DILUPBiCGStab:  Solving for ILambda_94_0, Initial residual = 1.81982529722e-15, Final residual = 1.33618237458e-61, No Iterations 18
DILUPBiCGStab:  Solving for ILambda_95_0, Initial residual = 1.66884758524e-15, Final residual = 2.71007071723e-62, No Iterations 15
DILUPBiCGStab:  Solving for ILambda_96_0, Initial residual = 5.76978512563e-16, Final residual = 9.28014068969e-62, No Iterations 10
DILUPBiCGStab:  Solving for ILambda_97_0, Initial residual = 7.42009769494e-16, Final residual = 3.09983165946e-62, No Iterations 10
DILUPBiCGStab:  Solving for ILambda_98_0, Initial residual = 6.18442996575e-16, Final residual = 1.37350824492e-62, No Iterations 10
DILUPBiCGStab:  Solving for ILambda_99_0, Initial residual = 6.15049261262e-16, Final residual = 3.1314242135e-61, No Iterations 10
DILUPBiCGStab:  Solving for ILambda_100_0, Initial residual = 6.02170470845e-16, Final residual = 3.94565557818e-62, No Iterations 10
DILUPBiCGStab:  Solving for ILambda_101_0, Initial residual = 6.75179289492e-16, Final residual = 2.91501143611e-61, No Iterations 10
DILUPBiCGStab:  Solving for ILambda_102_0, Initial residual = 6.79269175638e-16, Final residual = 6.35739283084e-61, No Iterations 11
DILUPBiCGStab:  Solving for ILambda_103_0, Initial residual = 5.47914215271e-16, Final residual = 8.23094066027e-62, No Iterations 11
DILUPBiCGStab:  Solving for ILambda_104_0, Initial residual = 6.04955074179e-16, Final residual = 2.40184681184e-61, No Iterations 12
DILUPBiCGStab:  Solving for ILambda_105_0, Initial residual = 6.9058162668e-16, Final residual = 1.11356787094e-61, No Iterations 14
DILUPBiCGStab:  Solving for ILambda_106_0, Initial residual = 7.34265091473e-16, Final residual = 9.83676509192e-61, No Iterations 15
DILUPBiCGStab:  Solving for ILambda_107_0, Initial residual = 6.37195559648e-16, Final residual = 6.21545804497e-62, No Iterations 15
DILUPBiCGStab:  Solving for ILambda_108_0, Initial residual = 6.63040159336e-16, Final residual = 3.66156300485e-62, No Iterations 15
DILUPBiCGStab:  Solving for ILambda_109_0, Initial residual = 6.52554387409e-16, Final residual = 3.45636409152e-61, No Iterations 14
DILUPBiCGStab:  Solving for ILambda_110_0, Initial residual = 6.38413823606e-16, Final residual = 1.22214424128e-61, No Iterations 13
DILUPBiCGStab:  Solving for ILambda_111_0, Initial residual = 5.93816660845e-16, Final residual = 8.31830706272e-63, No Iterations 11
DILUPBiCGStab:  Solving for ILambda_112_0, Initial residual = 2.95472519329e-16, Final residual = 6.83055234397e-64, No Iterations 2
DILUPBiCGStab:  Solving for ILambda_113_0, Initial residual = 3.00954707141e-16, Final residual = 5.67157631555e-64, No Iterations 2
DILUPBiCGStab:  Solving for ILambda_114_0, Initial residual = 3.2066447761e-16, Final residual = 5.94804718173e-64, No Iterations 2
DILUPBiCGStab:  Solving for ILambda_115_0, Initial residual = 3.33978362298e-16, Final residual = 5.88247337994e-64, No Iterations 2
DILUPBiCGStab:  Solving for ILambda_116_0, Initial residual = 3.12093120475e-16, Final residual = 5.68782609968e-64, No Iterations 2
DILUPBiCGStab:  Solving for ILambda_117_0, Initial residual = 3.05697234693e-16, Final residual = 5.58308704464e-64, No Iterations 2
DILUPBiCGStab:  Solving for ILambda_118_0, Initial residual = 2.99518896048e-16, Final residual = 1.00132302396e-63, No Iterations 2
DILUPBiCGStab:  Solving for ILambda_119_0, Initial residual = 3.01824895683e-16, Final residual = 7.139797413e-64, No Iterations 2
DILUPBiCGStab:  Solving for ILambda_120_0, Initial residual = 5.7763115397e-16, Final residual = 1.55799610252e-61, No Iterations 11
DILUPBiCGStab:  Solving for ILambda_121_0, Initial residual = 6.26840316002e-16, Final residual = 7.50757214294e-62, No Iterations 13
DILUPBiCGStab:  Solving for ILambda_122_0, Initial residual = 7.01981096576e-16, Final residual = 1.52111693647e-62, No Iterations 15
DILUPBiCGStab:  Solving for ILambda_123_0, Initial residual = 6.59298348607e-16, Final residual = 3.97029223474e-62, No Iterations 15
DILUPBiCGStab:  Solving for ILambda_124_0, Initial residual = 6.80704986732e-16, Final residual = 4.31632646389e-61, No Iterations 15
DILUPBiCGStab:  Solving for ILambda_125_0, Initial residual = 6.8984196642e-16, Final residual = 1.4059480862e-61, No Iterations 15
DILUPBiCGStab:  Solving for ILambda_126_0, Initial residual = 6.18051411731e-16, Final residual = 1.44170140438e-61, No Iterations 14
DILUPBiCGStab:  Solving for ILambda_127_0, Initial residual = 5.9673179246e-16, Final residual = 1.29475024039e-61, No Iterations 12
min/max(T) = 1000, 1000
PIMPLE: iteration 2
Radiation solver iter: 0
DILUPBiCGStab:  Solving for ILambda_0_0, Initial residual = 2.54834714432e-16, Final residual = 4.81237302735e-64, No Iterations 2
DILUPBiCGStab:  Solving for ILambda_1_0, Initial residual = 2.65886108911e-16, Final residual = 5.19726655528e-64, No Iterations 2
DILUPBiCGStab:  Solving for ILambda_2_0, Initial residual = 2.67974561411e-16, Final residual = 5.10610485844e-64, No Iterations 2
DILUPBiCGStab:  Solving for ILambda_3_0, Initial residual = 2.92209312297e-16, Final residual = 1.10660759843e-63, No Iterations 2
DILUPBiCGStab:  Solving for ILambda_4_0, Initial residual = 2.90991048339e-16, Final residual = 6.18601175538e-64, No Iterations 2
DILUPBiCGStab:  Solving for ILambda_5_0, Initial residual = 2.75849767713e-16, Final residual = 5.68077503003e-64, No Iterations 2
DILUPBiCGStab:  Solving for ILambda_6_0, Initial residual = 2.57575808338e-16, Final residual = 5.02187334427e-64, No Iterations 2
DILUPBiCGStab:  Solving for ILambda_7_0, Initial residual = 2.48656375786e-16, Final residual = 4.60032225204e-64, No Iterations 2
DILUPBiCGStab:  Solving for ILambda_8_0, Initial residual = 3.00432594016e-16, Final residual = 5.79582342377e-62, No Iterations 11
DILUPBiCGStab:  Solving for ILambda_9_0, Initial residual = 3.45682398184e-16, Final residual = 3.62731571823e-62, No Iterations 13
DILUPBiCGStab:  Solving for ILambda_10_0, Initial residual = 3.50294397454e-16, Final residual = 9.77628919403e-62, No Iterations 14
DILUPBiCGStab:  Solving for ILambda_11_0, Initial residual = 3.40548285788e-16, Final residual = 4.32855962068e-61, No Iterations 15
DILUPBiCGStab:  Solving for ILambda_12_0, Initial residual = 3.6199843334e-16, Final residual = 9.48576267542e-61, No Iterations 15
DILUPBiCGStab:  Solving for ILambda_13_0, Initial residual = 3.48771567506e-16, Final residual = 6.74292951741e-62, No Iterations 15
DILUPBiCGStab:  Solving for ILambda_14_0, Initial residual = 3.28365646204e-16, Final residual = 2.36272338765e-61, No Iterations 14
DILUPBiCGStab:  Solving for ILambda_15_0, Initial residual = 3.26407721985e-16, Final residual = 2.5992155277e-61, No Iterations 12
DILUPBiCGStab:  Solving for ILambda_16_0, Initial residual = 3.12441195891e-16, Final residual = 5.19588424158e-61, No Iterations 9
DILUPBiCGStab:  Solving for ILambda_17_0, Initial residual = 3.23144514954e-16, Final residual = 2.86185722242e-61, No Iterations 10
DILUPBiCGStab:  Solving for ILambda_18_0, Initial residual = 3.63173187871e-16, Final residual = 8.91885278237e-62, No Iterations 10
DILUPBiCGStab:  Solving for ILambda_19_0, Initial residual = 3.47248737559e-16, Final residual = 8.91652727316e-62, No Iterations 10
DILUPBiCGStab:  Solving for ILambda_20_0, Initial residual = 3.45595379329e-16, Final residual = 3.82254682496e-61, No Iterations 10
DILUPBiCGStab:  Solving for ILambda_21_0, Initial residual = 3.35153116829e-16, Final residual = 8.98802973117e-62, No Iterations 9
DILUPBiCGStab:  Solving for ILambda_22_0, Initial residual = 3.25668061725e-16, Final residual = 6.24038550107e-62, No Iterations 10
DILUPBiCGStab:  Solving for ILambda_23_0, Initial residual = 2.99692933756e-16, Final residual = 1.92410241263e-63, No Iterations 9
DILUPBiCGStab:  Solving for ILambda_24_0, Initial residual = 3.47292246986e-16, Final residual = 2.7737752197e-61, No Iterations 12
DILUPBiCGStab:  Solving for ILambda_25_0, Initial residual = 3.2201326985e-16, Final residual = 1.64056545297e-61, No Iterations 14
DILUPBiCGStab:  Solving for ILambda_26_0, Initial residual = 3.37807191881e-16, Final residual = 2.23158503907e-61, No Iterations 15
DILUPBiCGStab:  Solving for ILambda_27_0, Initial residual = 3.62999150163e-16, Final residual = 3.93060390662e-61, No Iterations 15
DILUPBiCGStab:  Solving for ILambda_28_0, Initial residual = 3.31628853235e-16, Final residual = 3.07147500232e-61, No Iterations 15
DILUPBiCGStab:  Solving for ILambda_29_0, Initial residual = 3.51817227402e-16, Final residual = 1.89561254286e-61, No Iterations 14
DILUPBiCGStab:  Solving for ILambda_30_0, Initial residual = 3.42462700579e-16, Final residual = 1.6092197556e-61, No Iterations 13
DILUPBiCGStab:  Solving for ILambda_31_0, Initial residual = 3.36240852506e-16, Final residual = 4.70720610222e-62, No Iterations 11
DILUPBiCGStab:  Solving for ILambda_32_0, Initial residual = 7.53670295952e-16, Final residual = 1.07595101344e-63, No Iterations 2
DILUPBiCGStab:  Solving for ILambda_33_0, Initial residual = 9.00906197205e-16, Final residual = 1.24690917822e-63, No Iterations 2
DILUPBiCGStab:  Solving for ILambda_34_0, Initial residual = 9.77047694602e-16, Final residual = 1.33087637427e-63, No Iterations 2
DILUPBiCGStab:  Solving for ILambda_35_0, Initial residual = 9.81572675019e-16, Final residual = 1.19438785721e-63, No Iterations 2
DILUPBiCGStab:  Solving for ILambda_36_0, Initial residual = 9.82964976686e-16, Final residual = 1.11492678081e-63, No Iterations 2
DILUPBiCGStab:  Solving for ILambda_37_0, Initial residual = 9.52856453144e-16, Final residual = 1.07294729853e-63, No Iterations 2
DILUPBiCGStab:  Solving for ILambda_38_0, Initial residual = 9.64516979602e-16, Final residual = 1.21187665766e-63, No Iterations 2
DILUPBiCGStab:  Solving for ILambda_39_0, Initial residual = 8.58353977517e-16, Final residual = 1.81369267973e-63, No Iterations 2
DILUPBiCGStab:  Solving for ILambda_40_0, Initial residual = 8.84894728038e-16, Final residual = 1.03102407637e-63, No Iterations 14
DILUPBiCGStab:  Solving for ILambda_41_0, Initial residual = 1.07476986783e-15, Final residual = 5.39656897315e-61, No Iterations 17
DILUPBiCGStab:  Solving for ILambda_42_0, Initial residual = 1.10183273148e-15, Final residual = 4.03656184479e-61, No Iterations 19
DILUPBiCGStab:  Solving for ILambda_43_0, Initial residual = 1.08634337544e-15, Final residual = 1.43219776321e-61, No Iterations 20
DILUPBiCGStab:  Solving for ILambda_44_0, Initial residual = 1.12584993523e-15, Final residual = 2.90843320901e-61, No Iterations 20
DILUPBiCGStab:  Solving for ILambda_45_0, Initial residual = 1.07024488742e-15, Final residual = 7.43481402171e-61, No Iterations 19
DILUPBiCGStab:  Solving for ILambda_46_0, Initial residual = 1.07485688669e-15, Final residual = 7.39517846017e-62, No Iterations 18
DILUPBiCGStab:  Solving for ILambda_47_0, Initial residual = 9.6216747054e-16, Final residual = 2.47749080864e-62, No Iterations 15
DILUPBiCGStab:  Solving for ILambda_48_0, Initial residual = 9.48679548144e-16, Final residual = 5.39630738012e-61, No Iterations 9
DILUPBiCGStab:  Solving for ILambda_49_0, Initial residual = 1.06980979315e-15, Final residual = 7.14101467413e-61, No Iterations 9
DILUPBiCGStab:  Solving for ILambda_50_0, Initial residual = 1.07572707523e-15, Final residual = 1.04914000841e-61, No Iterations 10
DILUPBiCGStab:  Solving for ILambda_51_0, Initial residual = 1.12028072856e-15, Final residual = 1.31620112303e-61, No Iterations 10
DILUPBiCGStab:  Solving for ILambda_52_0, Initial residual = 1.1021808069e-15, Final residual = 3.47809552204e-62, No Iterations 10
DILUPBiCGStab:  Solving for ILambda_53_0, Initial residual = 1.07033190627e-15, Final residual = 6.25967414468e-63, No Iterations 10
DILUPBiCGStab:  Solving for ILambda_54_0, Initial residual = 1.06928768002e-15, Final residual = 7.72641210138e-63, No Iterations 10
DILUPBiCGStab:  Solving for ILambda_55_0, Initial residual = 9.18832081164e-16, Final residual = 1.32571861058e-62, No Iterations 10
DILUPBiCGStab:  Solving for ILambda_56_0, Initial residual = 9.9453848429e-16, Final residual = 1.86167754836e-62, No Iterations 15
DILUPBiCGStab:  Solving for ILambda_57_0, Initial residual = 1.07494390554e-15, Final residual = 1.47629091225e-61, No Iterations 18
DILUPBiCGStab:  Solving for ILambda_58_0, Initial residual = 1.14412389461e-15, Final residual = 6.15605808956e-61, No Iterations 19
DILUPBiCGStab:  Solving for ILambda_59_0, Initial residual = 1.12358744502e-15, Final residual = 4.63265981678e-61, No Iterations 20
DILUPBiCGStab:  Solving for ILambda_60_0, Initial residual = 1.12219514336e-15, Final residual = 8.63243524389e-62, No Iterations 20
DILUPBiCGStab:  Solving for ILambda_61_0, Initial residual = 1.09722073221e-15, Final residual = 4.82819695835e-61, No Iterations 19
DILUPBiCGStab:  Solving for ILambda_62_0, Initial residual = 1.02229749877e-15, Final residual = 6.61908081467e-62, No Iterations 17
DILUPBiCGStab:  Solving for ILambda_63_0, Initial residual = 8.93335556892e-16, Final residual = 2.29866566335e-63, No Iterations 14
DILUPBiCGStab:  Solving for ILambda_64_0, Initial residual = 8.16584927516e-16, Final residual = 4.14262158775e-62, No Iterations 9
DILUPBiCGStab:  Solving for ILambda_65_0, Initial residual = 9.89665428457e-16, Final residual = 9.90469410661e-62, No Iterations 10
DILUPBiCGStab:  Solving for ILambda_66_0, Initial residual = 1.02899795054e-15, Final residual = 1.26411939532e-62, No Iterations 10
DILUPBiCGStab:  Solving for ILambda_67_0, Initial residual = 1.1126230694e-15, Final residual = 8.69887894318e-63, No Iterations 10
DILUPBiCGStab:  Solving for ILambda_68_0, Initial residual = 1.16135362773e-15, Final residual = 6.64244980261e-61, No Iterations 10
DILUPBiCGStab:  Solving for ILambda_69_0, Initial residual = 1.09626352481e-15, Final residual = 6.37600895456e-61, No Iterations 10
DILUPBiCGStab:  Solving for ILambda_70_0, Initial residual = 1.06737326523e-15, Final residual = 5.88764366905e-61, No Iterations 10
DILUPBiCGStab:  Solving for ILambda_71_0, Initial residual = 8.66620768663e-16, Final residual = 4.64567593801e-61, No Iterations 9
DILUPBiCGStab:  Solving for ILambda_72_0, Initial residual = 8.30507944183e-16, Final residual = 3.69469788939e-62, No Iterations 15
DILUPBiCGStab:  Solving for ILambda_73_0, Initial residual = 1.01751146179e-15, Final residual = 7.46566284963e-62, No Iterations 18
DILUPBiCGStab:  Solving for ILambda_74_0, Initial residual = 1.03256572356e-15, Final residual = 2.55341494965e-61, No Iterations 19
DILUPBiCGStab:  Solving for ILambda_75_0, Initial residual = 1.12428359586e-15, Final residual = 1.8786765233e-61, No Iterations 20
DILUPBiCGStab:  Solving for ILambda_76_0, Initial residual = 1.18493573721e-15, Final residual = 6.49700040583e-62, No Iterations 20
DILUPBiCGStab:  Solving for ILambda_77_0, Initial residual = 1.11157884315e-15, Final residual = 1.74073708417e-61, No Iterations 19
DILUPBiCGStab:  Solving for ILambda_78_0, Initial residual = 1.00402353939e-15, Final residual = 4.12390708656e-62, No Iterations 17
DILUPBiCGStab:  Solving for ILambda_79_0, Initial residual = 8.16062814391e-16, Final residual = 5.72774483613e-62, No Iterations 13
DILUPBiCGStab:  Solving for ILambda_80_0, Initial residual = 7.57934219806e-16, Final residual = 9.58308519706e-64, No Iterations 2
DILUPBiCGStab:  Solving for ILambda_81_0, Initial residual = 8.51044393767e-16, Final residual = 1.15959627342e-63, No Iterations 2
DILUPBiCGStab:  Solving for ILambda_82_0, Initial residual = 9.57903546685e-16, Final residual = 1.312481432e-63, No Iterations 2
DILUPBiCGStab:  Solving for ILambda_83_0, Initial residual = 9.85314485748e-16, Final residual = 1.20348744654e-63, No Iterations 2
DILUPBiCGStab:  Solving for ILambda_84_0, Initial residual = 1.01959991429e-15, Final residual = 1.17422872297e-63, No Iterations 2
DILUPBiCGStab:  Solving for ILambda_85_0, Initial residual = 8.68622202309e-16, Final residual = 1.16170654811e-63, No Iterations 2
DILUPBiCGStab:  Solving for ILambda_86_0, Initial residual = 8.37295414808e-16, Final residual = 1.08647901365e-63, No Iterations 2
DILUPBiCGStab:  Solving for ILambda_87_0, Initial residual = 7.39312185014e-16, Final residual = 9.26080138731e-64, No Iterations 2
DILUPBiCGStab:  Solving for ILambda_88_0, Initial residual = 8.93248538038e-16, Final residual = 5.02308497934e-62, No Iterations 13
DILUPBiCGStab:  Solving for ILambda_89_0, Initial residual = 1.07076700054e-15, Final residual = 5.69791866836e-61, No Iterations 17
DILUPBiCGStab:  Solving for ILambda_90_0, Initial residual = 1.13898978221e-15, Final residual = 3.18140840526e-61, No Iterations 19
DILUPBiCGStab:  Solving for ILambda_91_0, Initial residual = 1.16727090981e-15, Final residual = 2.51458630021e-61, No Iterations 20
DILUPBiCGStab:  Solving for ILambda_92_0, Initial residual = 1.16509543846e-15, Final residual = 1.23698758802e-61, No Iterations 20
DILUPBiCGStab:  Solving for ILambda_93_0, Initial residual = 1.00280527544e-15, Final residual = 5.00626161579e-63, No Iterations 20
DILUPBiCGStab:  Solving for ILambda_94_0, Initial residual = 9.89143315332e-16, Final residual = 7.28885527297e-62, No Iterations 18
DILUPBiCGStab:  Solving for ILambda_95_0, Initial residual = 8.48172771579e-16, Final residual = 3.11657589606e-62, No Iterations 15
DILUPBiCGStab:  Solving for ILambda_96_0, Initial residual = 3.07307083496e-16, Final residual = 1.20466110813e-61, No Iterations 9
DILUPBiCGStab:  Solving for ILambda_97_0, Initial residual = 3.40417757507e-16, Final residual = 1.33780083417e-61, No Iterations 9
DILUPBiCGStab:  Solving for ILambda_98_0, Initial residual = 3.25232967454e-16, Final residual = 6.27723255878e-61, No Iterations 9
DILUPBiCGStab:  Solving for ILambda_99_0, Initial residual = 3.32716588913e-16, Final residual = 1.39888729075e-61, No Iterations 10
DILUPBiCGStab:  Solving for ILambda_100_0, Initial residual = 3.24928401465e-16, Final residual = 6.84616062442e-62, No Iterations 10
DILUPBiCGStab:  Solving for ILambda_101_0, Initial residual = 3.29148815892e-16, Final residual = 1.43739675188e-62, No Iterations 10
DILUPBiCGStab:  Solving for ILambda_102_0, Initial residual = 3.43115341986e-16, Final residual = 1.89286315471e-61, No Iterations 10
DILUPBiCGStab:  Solving for ILambda_103_0, Initial residual = 3.05784253548e-16, Final residual = 1.27311138528e-61, No Iterations 9
DILUPBiCGStab:  Solving for ILambda_104_0, Initial residual = 3.21143081308e-16, Final residual = 5.7814356507e-62, No Iterations 12
DILUPBiCGStab:  Solving for ILambda_105_0, Initial residual = 3.46378549017e-16, Final residual = 1.81082720931e-62, No Iterations 14
DILUPBiCGStab:  Solving for ILambda_106_0, Initial residual = 3.57691000059e-16, Final residual = 4.43291915386e-62, No Iterations 15
DILUPBiCGStab:  Solving for ILambda_107_0, Initial residual = 3.36458399642e-16, Final residual = 3.78555468539e-62, No Iterations 15
DILUPBiCGStab:  Solving for ILambda_108_0, Initial residual = 3.50773001153e-16, Final residual = 3.939726304e-61, No Iterations 15
DILUPBiCGStab:  Solving for ILambda_109_0, Initial residual = 3.43811492819e-16, Final residual = 3.03889168797e-61, No Iterations 14
DILUPBiCGStab:  Solving for ILambda_110_0, Initial residual = 3.36980512767e-16, Final residual = 1.71649575849e-61, No Iterations 13
DILUPBiCGStab:  Solving for ILambda_111_0, Initial residual = 3.07481121204e-16, Final residual = 2.50026990622e-61, No Iterations 11
DILUPBiCGStab:  Solving for ILambda_112_0, Initial residual = 2.65102939224e-16, Final residual = 4.63226596629e-64, No Iterations 2
DILUPBiCGStab:  Solving for ILambda_113_0, Initial residual = 2.59011619432e-16, Final residual = 7.97158049545e-64, No Iterations 2
DILUPBiCGStab:  Solving for ILambda_114_0, Initial residual = 2.79852635005e-16, Final residual = 4.81807044478e-64, No Iterations 2
DILUPBiCGStab:  Solving for ILambda_115_0, Initial residual = 2.94297764797e-16, Final residual = 5.23602252448e-64, No Iterations 2
DILUPBiCGStab:  Solving for ILambda_116_0, Initial residual = 2.80244219849e-16, Final residual = 5.22019920784e-64, No Iterations 2
DILUPBiCGStab:  Solving for ILambda_117_0, Initial residual = 2.68366146255e-16, Final residual = 5.06291587962e-64, No Iterations 2
DILUPBiCGStab:  Solving for ILambda_118_0, Initial residual = 2.65842599484e-16, Final residual = 6.59439280015e-64, No Iterations 2
DILUPBiCGStab:  Solving for ILambda_119_0, Initial residual = 2.69323353651e-16, Final residual = 6.42777684224e-64, No Iterations 2
DILUPBiCGStab:  Solving for ILambda_120_0, Initial residual = 3.18663043965e-16, Final residual = 5.89870438111e-62, No Iterations 11
DILUPBiCGStab:  Solving for ILambda_121_0, Initial residual = 3.31889909798e-16, Final residual = 8.20119227865e-62, No Iterations 13
DILUPBiCGStab:  Solving for ILambda_122_0, Initial residual = 3.51599680267e-16, Final residual = 2.50812536078e-61, No Iterations 14
DILUPBiCGStab:  Solving for ILambda_123_0, Initial residual = 3.49380699486e-16, Final residual = 6.41975809403e-61, No Iterations 15
DILUPBiCGStab:  Solving for ILambda_124_0, Initial residual = 3.57560471778e-16, Final residual = 4.33172410038e-62, No Iterations 15
DILUPBiCGStab:  Solving for ILambda_125_0, Initial residual = 3.54210245892e-16, Final residual = 6.55927552873e-62, No Iterations 15
DILUPBiCGStab:  Solving for ILambda_126_0, Initial residual = 3.30106023288e-16, Final residual = 1.37471902933e-61, No Iterations 14
DILUPBiCGStab:  Solving for ILambda_127_0, Initial residual = 3.21969760423e-16, Final residual = 3.87925558652e-62, No Iterations 12
min/max(T) = 1000, 1000
PIMPLE: iteration 3
Radiation solver iter: 0
DILUPBiCGStab:  Solving for ILambda_0_0, Initial residual = 2.4978762089e-16, Final residual = 4.72476236056e-64, No Iterations 2
DILUPBiCGStab:  Solving for ILambda_1_0, Initial residual = 2.59403204276e-16, Final residual = 5.11421272548e-64, No Iterations 2
DILUPBiCGStab:  Solving for ILambda_2_0, Initial residual = 2.63536599849e-16, Final residual = 5.50838808601e-64, No Iterations 2
DILUPBiCGStab:  Solving for ILambda_3_0, Initial residual = 2.81201427245e-16, Final residual = 5.93535420108e-64, No Iterations 2
DILUPBiCGStab:  Solving for ILambda_4_0, Initial residual = 2.81767049797e-16, Final residual = 6.01085381975e-64, No Iterations 2
DILUPBiCGStab:  Solving for ILambda_5_0, Initial residual = 2.72586560682e-16, Final residual = 5.85883504155e-64, No Iterations 2
DILUPBiCGStab:  Solving for ILambda_6_0, Initial residual = 2.55226299276e-16, Final residual = 4.77650843337e-64, No Iterations 2
DILUPBiCGStab:  Solving for ILambda_7_0, Initial residual = 2.4769916839e-16, Final residual = 4.48340604997e-64, No Iterations 2
DILUPBiCGStab:  Solving for ILambda_8_0, Initial residual = 2.57575808338e-16, Final residual = 1.43229354934e-62, No Iterations 11
DILUPBiCGStab:  Solving for ILambda_9_0, Initial residual = 2.84247087141e-16, Final residual = 7.52595872077e-62, No Iterations 13
DILUPBiCGStab:  Solving for ILambda_10_0, Initial residual = 2.86596596203e-16, Final residual = 1.81465132182e-61, No Iterations 14
DILUPBiCGStab:  Solving for ILambda_11_0, Initial residual = 2.86857652766e-16, Final residual = 2.89036829069e-61, No Iterations 15
DILUPBiCGStab:  Solving for ILambda_12_0, Initial residual = 3.00650141151e-16, Final residual = 3.29888298235e-62, No Iterations 15
DILUPBiCGStab:  Solving for ILambda_13_0, Initial residual = 2.85856935943e-16, Final residual = 1.63296847434e-61, No Iterations 15
DILUPBiCGStab:  Solving for ILambda_14_0, Initial residual = 2.70106523338e-16, Final residual = 4.78162996801e-62, No Iterations 14
DILUPBiCGStab:  Solving for ILambda_15_0, Initial residual = 2.6262290188e-16, Final residual = 3.06355483274e-62, No Iterations 12
DILUPBiCGStab:  Solving for ILambda_16_0, Initial residual = 2.5814143089e-16, Final residual = 2.58449824024e-62, No Iterations 9
DILUPBiCGStab:  Solving for ILambda_17_0, Initial residual = 2.71020221307e-16, Final residual = 5.64686124541e-62, No Iterations 9
DILUPBiCGStab:  Solving for ILambda_18_0, Initial residual = 2.77894710786e-16, Final residual = 3.02215107064e-62, No Iterations 9
DILUPBiCGStab:  Solving for ILambda_19_0, Initial residual = 2.72499541828e-16, Final residual = 1.55341194483e-61, No Iterations 9
DILUPBiCGStab:  Solving for ILambda_20_0, Initial residual = 2.7306516438e-16, Final residual = 1.78894148368e-61, No Iterations 9
DILUPBiCGStab:  Solving for ILambda_21_0, Initial residual = 2.85682898234e-16, Final residual = 1.30069995279e-62, No Iterations 9
DILUPBiCGStab:  Solving for ILambda_22_0, Initial residual = 2.63493090422e-16, Final residual = 1.68217567318e-62, No Iterations 9
DILUPBiCGStab:  Solving for ILambda_23_0, Initial residual = 2.57488789484e-16, Final residual = 7.8515735295e-61, No Iterations 9
DILUPBiCGStab:  Solving for ILambda_24_0, Initial residual = 2.62448864172e-16, Final residual = 8.4573270153e-61, No Iterations 12
DILUPBiCGStab:  Solving for ILambda_25_0, Initial residual = 2.63449580994e-16, Final residual = 8.89271558267e-62, No Iterations 14
DILUPBiCGStab:  Solving for ILambda_26_0, Initial residual = 2.67669995422e-16, Final residual = 2.17073741771e-61, No Iterations 15
DILUPBiCGStab:  Solving for ILambda_27_0, Initial residual = 2.90033840943e-16, Final residual = 8.69458436118e-62, No Iterations 15
DILUPBiCGStab:  Solving for ILambda_28_0, Initial residual = 2.71150749588e-16, Final residual = 7.9057516696e-61, No Iterations 15
DILUPBiCGStab:  Solving for ILambda_29_0, Initial residual = 2.87292747037e-16, Final residual = 3.30080872422e-61, No Iterations 14
DILUPBiCGStab:  Solving for ILambda_30_0, Initial residual = 2.66843316307e-16, Final residual = 1.40717806927e-63, No Iterations 14
DILUPBiCGStab:  Solving for ILambda_31_0, Initial residual = 2.73326220943e-16, Final residual = 6.38588567774e-62, No Iterations 11
DILUPBiCGStab:  Solving for ILambda_32_0, Initial residual = 7.30175205327e-16, Final residual = 1.06631118931e-63, No Iterations 2
DILUPBiCGStab:  Solving for ILambda_33_0, Initial residual = 8.98556688143e-16, Final residual = 1.27617327529e-63, No Iterations 2
DILUPBiCGStab:  Solving for ILambda_34_0, Initial residual = 9.6947705429e-16, Final residual = 1.28420273467e-63, No Iterations 2
DILUPBiCGStab:  Solving for ILambda_35_0, Initial residual = 9.82268825853e-16, Final residual = 1.14713913807e-63, No Iterations 2
DILUPBiCGStab:  Solving for ILambda_36_0, Initial residual = 9.73218865019e-16, Final residual = 1.06036844903e-63, No Iterations 2
DILUPBiCGStab:  Solving for ILambda_37_0, Initial residual = 9.44589661998e-16, Final residual = 1.96863785197e-63, No Iterations 2
DILUPBiCGStab:  Solving for ILambda_38_0, Initial residual = 9.62776602519e-16, Final residual = 2.19232592564e-63, No Iterations 2
DILUPBiCGStab:  Solving for ILambda_39_0, Initial residual = 8.60529448871e-16, Final residual = 1.54654400472e-63, No Iterations 2
DILUPBiCGStab:  Solving for ILambda_40_0, Initial residual = 7.8534515887e-16, Final residual = 5.0835079334e-62, No Iterations 13
DILUPBiCGStab:  Solving for ILambda_41_0, Initial residual = 9.60949206581e-16, Final residual = 1.21982079476e-61, No Iterations 17
DILUPBiCGStab:  Solving for ILambda_42_0, Initial residual = 9.63124677935e-16, Final residual = 1.85409401097e-61, No Iterations 19
DILUPBiCGStab:  Solving for ILambda_43_0, Initial residual = 9.73566940436e-16, Final residual = 5.91392419574e-62, No Iterations 20
DILUPBiCGStab:  Solving for ILambda_44_0, Initial residual = 1.00820044439e-15, Final residual = 9.98693922594e-62, No Iterations 20
DILUPBiCGStab:  Solving for ILambda_45_0, Initial residual = 9.52769434289e-16, Final residual = 1.03110816378e-61, No Iterations 19
DILUPBiCGStab:  Solving for ILambda_46_0, Initial residual = 9.68258790331e-16, Final residual = 5.68037770972e-61, No Iterations 18
DILUPBiCGStab:  Solving for ILambda_47_0, Initial residual = 8.705366171e-16, Final residual = 5.42960723428e-62, No Iterations 15
DILUPBiCGStab:  Solving for ILambda_48_0, Initial residual = 8.50783337204e-16, Final residual = 6.69100897698e-61, No Iterations 9
DILUPBiCGStab:  Solving for ILambda_49_0, Initial residual = 9.86010636582e-16, Final residual = 4.46116541889e-61, No Iterations 10
DILUPBiCGStab:  Solving for ILambda_50_0, Initial residual = 9.94799540853e-16, Final residual = 8.91407685369e-61, No Iterations 9
DILUPBiCGStab:  Solving for ILambda_51_0, Initial residual = 1.02429893242e-15, Final residual = 7.20199470702e-63, No Iterations 10
DILUPBiCGStab:  Solving for ILambda_52_0, Initial residual = 9.79223165957e-16, Final residual = 5.8988139855e-61, No Iterations 10
DILUPBiCGStab:  Solving for ILambda_53_0, Initial residual = 9.59730942623e-16, Final residual = 8.33385464634e-63, No Iterations 10
DILUPBiCGStab:  Solving for ILambda_54_0, Initial residual = 9.53552603977e-16, Final residual = 4.4145722825e-62, No Iterations 10
DILUPBiCGStab:  Solving for ILambda_55_0, Initial residual = 8.18325304599e-16, Final residual = 3.44818325824e-61, No Iterations 9
DILUPBiCGStab:  Solving for ILambda_56_0, Initial residual = 8.85329822309e-16, Final residual = 6.21231315836e-62, No Iterations 15
DILUPBiCGStab:  Solving for ILambda_57_0, Initial residual = 9.54161735956e-16, Final residual = 9.35821886404e-62, No Iterations 18
DILUPBiCGStab:  Solving for ILambda_58_0, Initial residual = 1.02673546033e-15, Final residual = 1.09895760008e-61, No Iterations 19
DILUPBiCGStab:  Solving for ILambda_59_0, Initial residual = 1.0167282921e-15, Final residual = 6.13957582152e-61, No Iterations 20
DILUPBiCGStab:  Solving for ILambda_60_0, Initial residual = 9.99585577832e-16, Final residual = 1.55148773493e-61, No Iterations 20
DILUPBiCGStab:  Solving for ILambda_61_0, Initial residual = 9.56250188456e-16, Final residual = 6.44730330056e-61, No Iterations 19
DILUPBiCGStab:  Solving for ILambda_62_0, Initial residual = 9.3232000356e-16, Final residual = 6.1413536622e-61, No Iterations 17
DILUPBiCGStab:  Solving for ILambda_63_0, Initial residual = 7.92132629495e-16, Final residual = 4.07889467469e-62, No Iterations 13
DILUPBiCGStab:  Solving for ILambda_64_0, Initial residual = 7.36005468556e-16, Final residual = 1.10011436689e-62, No Iterations 10
DILUPBiCGStab:  Solving for ILambda_65_0, Initial residual = 8.50783337204e-16, Final residual = 1.62311527454e-62, No Iterations 9
DILUPBiCGStab:  Solving for ILambda_66_0, Initial residual = 9.24575325539e-16, Final residual = 1.4722030964e-62, No Iterations 9
[...]
DILUPBiCGStab:  Solving for ILambda_108_0, Initial residual = 2.82115125214e-16, Final residual = 5.29262030265e-62, No Iterations 15
DILUPBiCGStab:  Solving for ILambda_109_0, Initial residual = 2.67452448286e-16, Final residual = 3.47747250355e-61, No Iterations 14
DILUPBiCGStab:  Solving for ILambda_110_0, Initial residual = 2.6710437287e-16, Final residual = 7.76759331951e-62, No Iterations 13
DILUPBiCGStab:  Solving for ILambda_111_0, Initial residual = 2.47177055265e-16, Final residual = 2.26211285715e-61, No Iterations 11
DILUPBiCGStab:  Solving for ILambda_112_0, Initial residual = 2.61448147349e-16, Final residual = 4.64959310807e-64, No Iterations 2
DILUPBiCGStab:  Solving for ILambda_113_0, Initial residual = 2.54965242713e-16, Final residual = 4.7640546751e-64, No Iterations 2
DILUPBiCGStab:  Solving for ILambda_114_0, Initial residual = 2.69149315943e-16, Final residual = 5.1358056193e-64, No Iterations 2
DILUPBiCGStab:  Solving for ILambda_115_0, Initial residual = 2.87336256464e-16, Final residual = 5.01216228955e-64, No Iterations 2
DILUPBiCGStab:  Solving for ILambda_116_0, Initial residual = 2.76589427974e-16, Final residual = 5.20218346758e-64, No Iterations 2
DILUPBiCGStab:  Solving for ILambda_117_0, Initial residual = 2.68105089693e-16, Final residual = 5.00808869021e-64, No Iterations 2
DILUPBiCGStab:  Solving for ILambda_118_0, Initial residual = 2.67452448286e-16, Final residual = 6.83299916141e-64, No Iterations 2
DILUPBiCGStab:  Solving for ILambda_119_0, Initial residual = 2.69801957349e-16, Final residual = 4.84241722386e-64, No Iterations 2
DILUPBiCGStab:  Solving for ILambda_120_0, Initial residual = 2.51919582817e-16, Final residual = 4.9545186898e-62, No Iterations 11
DILUPBiCGStab:  Solving for ILambda_121_0, Initial residual = 2.65799090057e-16, Final residual = 5.41230294409e-62, No Iterations 13
DILUPBiCGStab:  Solving for ILambda_122_0, Initial residual = 2.77198559953e-16, Final residual = 5.96344959142e-61, No Iterations 14
DILUPBiCGStab:  Solving for ILambda_123_0, Initial residual = 2.70193542193e-16, Final residual = 3.80678406377e-62, No Iterations 15
DILUPBiCGStab:  Solving for ILambda_124_0, Initial residual = 2.80461766985e-16, Final residual = 5.7494079891e-61, No Iterations 15
DILUPBiCGStab:  Solving for ILambda_125_0, Initial residual = 2.68105089693e-16, Final residual = 1.53879572802e-61, No Iterations 15
DILUPBiCGStab:  Solving for ILambda_126_0, Initial residual = 2.65233467505e-16, Final residual = 4.97969642245e-62, No Iterations 14
DILUPBiCGStab:  Solving for ILambda_127_0, Initial residual = 2.70367579901e-16, Final residual = 1.95283988463e-62, No Iterations 12
min/max(T) = 1000, 1000
PIMPLE: iteration 10
Radiation solver iter: 0
DILUPBiCGStab:  Solving for ILambda_0_0, Initial residual = 2.50222715161e-16, Final residual = 4.735820867e-64, No Iterations 2
DILUPBiCGStab:  Solving for ILambda_1_0, Initial residual = 2.63057996151e-16, Final residual = 5.05578449139e-64, No Iterations 2
DILUPBiCGStab:  Solving for ILambda_2_0, Initial residual = 2.66364712609e-16, Final residual = 5.18869246366e-64, No Iterations 2
DILUPBiCGStab:  Solving for ILambda_3_0, Initial residual = 2.88162935578e-16, Final residual = 6.06025443655e-64, No Iterations 2
DILUPBiCGStab:  Solving for ILambda_4_0, Initial residual = 2.86857652766e-16, Final residual = 6.25989379802e-64, No Iterations 2
DILUPBiCGStab:  Solving for ILambda_5_0, Initial residual = 2.78155767349e-16, Final residual = 5.93729538602e-64, No Iterations 2
DILUPBiCGStab:  Solving for ILambda_6_0, Initial residual = 2.55356827557e-16, Final residual = 4.80730098421e-64, No Iterations 2
DILUPBiCGStab:  Solving for ILambda_7_0, Initial residual = 2.48525847505e-16, Final residual = 4.97961710651e-64, No Iterations 2
DILUPBiCGStab:  Solving for ILambda_8_0, Initial residual = 2.52789771359e-16, Final residual = 1.95750618417e-62, No Iterations 11
DILUPBiCGStab:  Solving for ILambda_9_0, Initial residual = 2.7410939063e-16, Final residual = 4.25093710192e-62, No Iterations 13
DILUPBiCGStab:  Solving for ILambda_10_0, Initial residual = 2.76632937401e-16, Final residual = 1.56669752236e-61, No Iterations 14
DILUPBiCGStab:  Solving for ILambda_11_0, Initial residual = 2.76328371411e-16, Final residual = 5.22863122078e-61, No Iterations 15
DILUPBiCGStab:  Solving for ILambda_12_0, Initial residual = 2.95080934485e-16, Final residual = 2.89682519036e-62, No Iterations 15
DILUPBiCGStab:  Solving for ILambda_13_0, Initial residual = 2.7859086162e-16, Final residual = 7.40851205396e-62, No Iterations 15
DILUPBiCGStab:  Solving for ILambda_14_0, Initial residual = 2.61491656776e-16, Final residual = 1.37409321851e-61, No Iterations 14
DILUPBiCGStab:  Solving for ILambda_15_0, Initial residual = 2.51658526255e-16, Final residual = 6.65671866128e-62, No Iterations 12
DILUPBiCGStab:  Solving for ILambda_16_0, Initial residual = 2.5113641313e-16, Final residual = 6.11687167711e-62, No Iterations 9
DILUPBiCGStab:  Solving for ILambda_17_0, Initial residual = 2.66190674901e-16, Final residual = 5.34531590639e-61, No Iterations 9
DILUPBiCGStab:  Solving for ILambda_18_0, Initial residual = 2.63101505578e-16, Final residual = 5.56271656682e-62, No Iterations 10
DILUPBiCGStab:  Solving for ILambda_19_0, Initial residual = 2.60882524797e-16, Final residual = 1.11416313434e-61, No Iterations 10
DILUPBiCGStab:  Solving for ILambda_20_0, Initial residual = 2.65538033495e-16, Final residual = 3.44723413809e-63, No Iterations 10
DILUPBiCGStab:  Solving for ILambda_21_0, Initial residual = 2.81288446099e-16, Final residual = 8.75350814203e-62, No Iterations 10
DILUPBiCGStab:  Solving for ILambda_22_0, Initial residual = 2.58750562869e-16, Final residual = 3.61495547173e-62, No Iterations 9
DILUPBiCGStab:  Solving for ILambda_23_0, Initial residual = 2.51353960265e-16, Final residual = 3.56827956941e-62, No Iterations 9
DILUPBiCGStab:  Solving for ILambda_24_0, Initial residual = 2.51223431984e-16, Final residual = 1.30071330133e-61, No Iterations 12
DILUPBiCGStab:  Solving for ILambda_25_0, Initial residual = 2.57836864901e-16, Final residual = 8.14035508652e-62, No Iterations 14
DILUPBiCGStab:  Solving for ILambda_26_0, Initial residual = 2.53442412765e-16, Final residual = 4.74317321693e-62, No Iterations 15
DILUPBiCGStab:  Solving for ILambda_27_0, Initial residual = 2.84595162557e-16, Final residual = 4.1098766332e-62, No Iterations 15
DILUPBiCGStab:  Solving for ILambda_28_0, Initial residual = 2.68366146255e-16, Final residual = 2.11788829628e-61, No Iterations 15
DILUPBiCGStab:  Solving for ILambda_29_0, Initial residual = 2.70193542193e-16, Final residual = 1.31092287258e-61, No Iterations 14
DILUPBiCGStab:  Solving for ILambda_30_0, Initial residual = 2.58924600578e-16, Final residual = 5.13350494239e-62, No Iterations 13
DILUPBiCGStab:  Solving for ILambda_31_0, Initial residual = 2.64232750682e-16, Final residual = 7.49337254561e-62, No Iterations 11
DILUPBiCGStab:  Solving for ILambda_32_0, Initial residual = 7.36962675952e-16, Final residual = 9.71871162408e-64, No Iterations 2
DILUPBiCGStab:  Solving for ILambda_33_0, Initial residual = 9.07084535851e-16, Final residual = 1.27223802088e-63, No Iterations 2
DILUPBiCGStab:  Solving for ILambda_34_0, Initial residual = 9.74785204394e-16, Final residual = 1.34720582919e-63, No Iterations 2
DILUPBiCGStab:  Solving for ILambda_35_0, Initial residual = 9.84444297207e-16, Final residual = 2.25653619214e-63, No Iterations 2
DILUPBiCGStab:  Solving for ILambda_36_0, Initial residual = 9.71652525644e-16, Final residual = 1.03529600693e-63, No Iterations 2
DILUPBiCGStab:  Solving for ILambda_37_0, Initial residual = 9.59904980331e-16, Final residual = 1.18227321541e-63, No Iterations 2
DILUPBiCGStab:  Solving for ILambda_38_0, Initial residual = 9.73305883873e-16, Final residual = 1.17778704756e-63, No Iterations 2
DILUPBiCGStab:  Solving for ILambda_39_0, Initial residual = 8.50609299496e-16, Final residual = 9.43781949364e-64, No Iterations 2
DILUPBiCGStab:  Solving for ILambda_40_0, Initial residual = 7.59761615744e-16, Final residual = 4.71420389852e-62, No Iterations 13
DILUPBiCGStab:  Solving for ILambda_41_0, Initial residual = 9.48940604706e-16, Final residual = 5.95983754293e-62, No Iterations 17
DILUPBiCGStab:  Solving for ILambda_42_0, Initial residual = 9.5216030231e-16, Final residual = 1.91244021532e-61, No Iterations 19
DILUPBiCGStab:  Solving for ILambda_43_0, Initial residual = 9.35626720018e-16, Final residual = 9.64208844934e-62, No Iterations 20
DILUPBiCGStab:  Solving for ILambda_44_0, Initial residual = 9.74437128977e-16, Final residual = 1.34483713374e-61, No Iterations 20
DILUPBiCGStab:  Solving for ILambda_45_0, Initial residual = 9.3754113481e-16, Final residual = 1.03832347103e-61, No Iterations 19
DILUPBiCGStab:  Solving for ILambda_46_0, Initial residual = 9.56859320435e-16, Final residual = 5.14504172542e-61, No Iterations 17
DILUPBiCGStab:  Solving for ILambda_47_0, Initial residual = 8.62704920225e-16, Final residual = 6.71415938665e-62, No Iterations 15
DILUPBiCGStab:  Solving for ILambda_48_0, Initial residual = 8.39557905016e-16, Final residual = 5.33091336393e-63, No Iterations 10
DILUPBiCGStab:  Solving for ILambda_49_0, Initial residual = 9.49288680123e-16, Final residual = 6.15514833072e-61, No Iterations 10
DILUPBiCGStab:  Solving for ILambda_50_0, Initial residual = 9.85836598873e-16, Final residual = 3.69961438348e-62, No Iterations 10
DILUPBiCGStab:  Solving for ILambda_51_0, Initial residual = 1.00985380262e-15, Final residual = 3.02189744429e-61, No Iterations 10
DILUPBiCGStab:  Solving for ILambda_52_0, Initial residual = 9.77221732311e-16, Final residual = 9.29377171998e-63, No Iterations 10
DILUPBiCGStab:  Solving for ILambda_53_0, Initial residual = 9.45807925956e-16, Final residual = 1.56170993017e-61, No Iterations 10
DILUPBiCGStab:  Solving for ILambda_54_0, Initial residual = 9.23444080435e-16, Final residual = 5.87036671746e-62, No Iterations 10
DILUPBiCGStab:  Solving for ILambda_55_0, Initial residual = 7.88390818765e-16, Final residual = 2.55913262057e-63, No Iterations 9
DILUPBiCGStab:  Solving for ILambda_56_0, Initial residual = 8.76453899184e-16, Final residual = 2.26212129341e-62, No Iterations 15
DILUPBiCGStab:  Solving for ILambda_57_0, Initial residual = 9.28578192831e-16, Final residual = 2.62185761818e-62, No Iterations 18
DILUPBiCGStab:  Solving for ILambda_58_0, Initial residual = 1.01307350023e-15, Final residual = 5.53564446661e-61, No Iterations 19
DILUPBiCGStab:  Solving for ILambda_59_0, Initial residual = 9.95060597415e-16, Final residual = 3.61702158415e-61, No Iterations 20
DILUPBiCGStab:  Solving for ILambda_60_0, Initial residual = 9.65387168144e-16, Final residual = 4.01038981366e-61, No Iterations 20
DILUPBiCGStab:  Solving for ILambda_61_0, Initial residual = 9.46852152206e-16, Final residual = 2.57774570273e-61, No Iterations 19
DILUPBiCGStab:  Solving for ILambda_62_0, Initial residual = 8.99774952101e-16, Final residual = 4.9029128804e-61, No Iterations 17
DILUPBiCGStab:  Solving for ILambda_63_0, Initial residual = 7.71074066786e-16, Final residual = 4.81247486391e-62, No Iterations 13
DILUPBiCGStab:  Solving for ILambda_64_0, Initial residual = 7.13380566472e-16, Final residual = 5.04833735584e-63, No Iterations 9
DILUPBiCGStab:  Solving for ILambda_65_0, Initial residual = 8.41211263246e-16, Final residual = 1.1561506319e-62, No Iterations 10
DILUPBiCGStab:  Solving for ILambda_66_0, Initial residual = 8.92204311788e-16, Final residual = 3.30885703108e-61, No Iterations 10
DILUPBiCGStab:  Solving for ILambda_67_0, Initial residual = 1.02473402669e-15, Final residual = 1.97284909496e-62, No Iterations 9
DILUPBiCGStab:  Solving for ILambda_68_0, Initial residual = 1.03665560971e-15, Final residual = 4.94808097117e-61, No Iterations 10
DILUPBiCGStab:  Solving for ILambda_69_0, Initial residual = 9.58947772935e-16, Final residual = 2.32393343535e-62, No Iterations 11
DILUPBiCGStab:  Solving for ILambda_70_0, Initial residual = 8.95336990538e-16, Final residual = 9.81572173435e-61, No Iterations 10
DILUPBiCGStab:  Solving for ILambda_71_0, Initial residual = 7.21995433035e-16, Final residual = 5.10832627011e-62, No Iterations 10
DILUPBiCGStab:  Solving for ILambda_72_0, Initial residual = 7.10944038556e-16, Final residual = 1.31991766529e-61, No Iterations 15
DILUPBiCGStab:  Solving for ILambda_73_0, Initial residual = 8.65228466996e-16, Final residual = 3.25314235815e-61, No Iterations 18
DILUPBiCGStab:  Solving for ILambda_74_0, Initial residual = 8.68883258871e-16, Final residual = 7.92240254327e-61, No Iterations 19
DILUPBiCGStab:  Solving for ILambda_75_0, Initial residual = 9.88708221061e-16, Final residual = 3.79468769078e-61, No Iterations 20
DILUPBiCGStab:  Solving for ILambda_76_0, Initial residual = 1.03587244002e-15, Final residual = 1.79124104721e-61, No Iterations 20
DILUPBiCGStab:  Solving for ILambda_77_0, Initial residual = 9.59382867206e-16, Final residual = 1.77986892172e-61, No Iterations 19
DILUPBiCGStab:  Solving for ILambda_78_0, Initial residual = 8.580059021e-16, Final residual = 3.528524594e-61, No Iterations 17
DILUPBiCGStab:  Solving for ILambda_79_0, Initial residual = 7.16687282931e-16, Final residual = 3.21602259816e-62, No Iterations 13
DILUPBiCGStab:  Solving for ILambda_80_0, Initial residual = 7.23822828972e-16, Final residual = 9.52921136422e-64, No Iterations 2
DILUPBiCGStab:  Solving for ILambda_81_0, Initial residual = 8.45997300225e-16, Final residual = 1.14128946147e-63, No Iterations 2
DILUPBiCGStab:  Solving for ILambda_82_0, Initial residual = 9.4171803981e-16, Final residual = 1.23803393288e-63, No Iterations 2
DILUPBiCGStab:  Solving for ILambda_83_0, Initial residual = 9.74002034707e-16, Final residual = 1.19846383072e-63, No Iterations 2
DILUPBiCGStab:  Solving for ILambda_84_0, Initial residual = 1.01959991429e-15, Final residual = 1.21769587776e-63, No Iterations 2
DILUPBiCGStab:  Solving for ILambda_85_0, Initial residual = 8.64445297309e-16, Final residual = 1.05850676087e-63, No Iterations 2
DILUPBiCGStab:  Solving for ILambda_86_0, Initial residual = 8.32857453245e-16, Final residual = 1.0293179959e-63, No Iterations 2
DILUPBiCGStab:  Solving for ILambda_87_0, Initial residual = 7.26781470014e-16, Final residual = 8.94854367183e-64, No Iterations 2
DILUPBiCGStab:  Solving for ILambda_88_0, Initial residual = 7.74554820953e-16, Final residual = 2.8986421089e-61, No Iterations 13
DILUPBiCGStab:  Solving for ILambda_89_0, Initial residual = 9.57642490123e-16, Final residual = 4.54057478398e-61, No Iterations 17
DILUPBiCGStab:  Solving for ILambda_90_0, Initial residual = 9.40760832414e-16, Final residual = 4.67365801541e-61, No Iterations 19
DILUPBiCGStab:  Solving for ILambda_91_0, Initial residual = 1.03526330804e-15, Final residual = 1.61712213877e-61, No Iterations 20
DILUPBiCGStab:  Solving for ILambda_92_0, Initial residual = 1.01054995346e-15, Final residual = 2.59991893809e-61, No Iterations 20
DILUPBiCGStab:  Solving for ILambda_93_0, Initial residual = 8.69144315434e-16, Final residual = 1.54328909207e-61, No Iterations 19
DILUPBiCGStab:  Solving for ILambda_94_0, Initial residual = 8.38513678766e-16, Final residual = 2.22569273021e-61, No Iterations 18
DILUPBiCGStab:  Solving for ILambda_95_0, Initial residual = 7.30784337306e-16, Final residual = 4.73635902374e-61, No Iterations 14
DILUPBiCGStab:  Solving for ILambda_96_0, Initial residual = 2.57184223495e-16, Final residual = 1.06738123228e-62, No Iterations 9
DILUPBiCGStab:  Solving for ILambda_97_0, Initial residual = 2.65799090057e-16, Final residual = 9.83087928802e-61, No Iterations 9
DILUPBiCGStab:  Solving for ILambda_98_0, Initial residual = 2.7754663537e-16, Final residual = 5.67860980936e-61, No Iterations 9
DILUPBiCGStab:  Solving for ILambda_99_0, Initial residual = 2.7441395662e-16, Final residual = 1.7690636417e-61, No Iterations 9
DILUPBiCGStab:  Solving for ILambda_100_0, Initial residual = 2.70411089328e-16, Final residual = 5.96266286581e-61, No Iterations 10
DILUPBiCGStab:  Solving for ILambda_101_0, Initial residual = 2.62448864172e-16, Final residual = 4.7790940766e-63, No Iterations 9
DILUPBiCGStab:  Solving for ILambda_102_0, Initial residual = 2.68801240526e-16, Final residual = 9.30982857735e-63, No Iterations 10
DILUPBiCGStab:  Solving for ILambda_103_0, Initial residual = 2.54312601307e-16, Final residual = 5.03952056782e-61, No Iterations 9
DILUPBiCGStab:  Solving for ILambda_104_0, Initial residual = 2.51223431984e-16, Final residual = 1.71054573633e-61, No Iterations 12
DILUPBiCGStab:  Solving for ILambda_105_0, Initial residual = 2.68931768807e-16, Final residual = 1.9046917779e-61, No Iterations 14
DILUPBiCGStab:  Solving for ILambda_106_0, Initial residual = 2.63101505578e-16, Final residual = 4.80331578599e-62, No Iterations 15
DILUPBiCGStab:  Solving for ILambda_107_0, Initial residual = 2.65799090057e-16, Final residual = 3.133393416e-62, No Iterations 15
DILUPBiCGStab:  Solving for ILambda_108_0, Initial residual = 2.84160068287e-16, Final residual = 8.47702128594e-61, No Iterations 15
DILUPBiCGStab:  Solving for ILambda_109_0, Initial residual = 2.69018787662e-16, Final residual = 1.67344732615e-61, No Iterations 14
DILUPBiCGStab:  Solving for ILambda_110_0, Initial residual = 2.67452448286e-16, Final residual = 1.08575050726e-61, No Iterations 13
DILUPBiCGStab:  Solving for ILambda_111_0, Initial residual = 2.5218063938e-16, Final residual = 2.95930182156e-62, No Iterations 11
DILUPBiCGStab:  Solving for ILambda_112_0, Initial residual = 2.61143581359e-16, Final residual = 4.79943783203e-64, No Iterations 2
DILUPBiCGStab:  Solving for ILambda_113_0, Initial residual = 2.54791205005e-16, Final residual = 4.90378801026e-64, No Iterations 2
DILUPBiCGStab:  Solving for ILambda_114_0, Initial residual = 2.66625769172e-16, Final residual = 5.04212299922e-64, No Iterations 2
DILUPBiCGStab:  Solving for ILambda_115_0, Initial residual = 2.84899728547e-16, Final residual = 5.02001562121e-64, No Iterations 2
DILUPBiCGStab:  Solving for ILambda_116_0, Initial residual = 2.80244219849e-16, Final residual = 5.18656104222e-64, No Iterations 2
DILUPBiCGStab:  Solving for ILambda_117_0, Initial residual = 2.68061580266e-16, Final residual = 5.12223103959e-64, No Iterations 2
DILUPBiCGStab:  Solving for ILambda_118_0, Initial residual = 2.64667844953e-16, Final residual = 5.18016572037e-64, No Iterations 2
DILUPBiCGStab:  Solving for ILambda_119_0, Initial residual = 2.68409655682e-16, Final residual = 4.79834013942e-64, No Iterations 2
DILUPBiCGStab:  Solving for ILambda_120_0, Initial residual = 2.51658526255e-16, Final residual = 9.55034831516e-62, No Iterations 11
DILUPBiCGStab:  Solving for ILambda_121_0, Initial residual = 2.64406788391e-16, Final residual = 8.02552401329e-62, No Iterations 13
DILUPBiCGStab:  Solving for ILambda_122_0, Initial residual = 2.77155050526e-16, Final residual = 1.02899249539e-61, No Iterations 14
DILUPBiCGStab:  Solving for ILambda_123_0, Initial residual = 2.70889693026e-16, Final residual = 6.61604295435e-61, No Iterations 15
DILUPBiCGStab:  Solving for ILambda_124_0, Initial residual = 2.78373314485e-16, Final residual = 2.88849357724e-62, No Iterations 15
DILUPBiCGStab:  Solving for ILambda_125_0, Initial residual = 2.71194259016e-16, Final residual = 4.72132888094e-62, No Iterations 15
DILUPBiCGStab:  Solving for ILambda_126_0, Initial residual = 2.66495240891e-16, Final residual = 7.3378376878e-62, No Iterations 14
DILUPBiCGStab:  Solving for ILambda_127_0, Initial residual = 2.68409655682e-16, Final residual = 2.44244870291e-62, No Iterations 12
min/max(T) = 1000, 1000
ExecutionTime = 8.31 s  ClockTime = 8 s

writeObjects writeObjects1.writeObjects write:
    writing object a
    writing object qem
End

