/*---------------------------------------------------------------------------*\
| =========                 |                                                 |
| \\      /  F ield         | OpenFOAM: The Open Source CFD Toolbox           |
|  \\    /   O peration     | Version:  2306                                  |
|   \\  /    A nd           | Website:  www.openfoam.com                      |
|    \\/     M anipulation  |                                                 |
\*---------------------------------------------------------------------------*/
Build  : _fbf00d6b-20230626 OPENFOAM=2306 version=2306
Arch   : "LSB;label=32;scalar=64"
Exec   : fireRADFoam_MaCFP
Date   : Mar 13 2024
Time   : 03:09:26
Host   : pop-os
PID    : 199280
I/O    : uncollated
Case   : /home/rafay/Desktop/Study/Radiative_Heat_Transfer/Local_copy_RHT2324/01_Projects/02_Rafay/Case_1_q1D_SolidAngle/new_case3/th_4-ph_8/tau_10/res_8
nProcs : 1
trapFpe: Floating point exception trapping enabled (FOAM_SIGFPE).
fileModificationChecking : Monitoring run-time modified files using timeStampMaster (fileModificationSkew 5, maxFileModificationPolls 20)
allowSystemOperations : Allowing user-supplied system call operations

// * * * * * * * * * * * * * * * * * * * * * * * * * * * * * * * * * * * * * //
Create time

Create mesh for time = 0


PIMPLE: no residual control data found. Calculations will employ 10 corrector loops

Reading thermophysical properties

Selecting thermodynamics package 
{
    type            hePsiThermo;
    mixture         singleStepReactingMixture;
    transport       sutherland;
    thermo          janaf;
    energy          sensibleEnthalpy;
    equationOfState perfectGas;
    specie          specie;
}

Selecting chemistryReader foamChemistryReader
    elements not defined in "/home/rafay/Desktop/Study/Radiative_Heat_Transfer/Local_copy_RHT2324/01_Projects/02_Rafay/Case_1_q1D_SolidAngle/new_case3/th_4-ph_8/tau_10/res_8/constant/reactions"
Fuel heat of combustion :47168962.4726
stoichiometric air-fuel ratio :14.6914056505
stoichiometric oxygen-fuel ratio :3.42181919285
Maximum products mass concentrations:
    H2O: 0.0818486943001
    CO2: 0.199950099979
    N2: 0.718201205721
Creating component thermo properties:
    multi-component carrier - 6 species
    no liquid components
    no solid components
Creating field rho


Reading field U

Reading/calculating face flux field phi

Selecting radiationModel fvDOM
Selecting absorptionEmissionModel constantAbsorptionEmission
Selecting scatterModel none
Selecting sootModel none
fvDOM : Allocated 128 rays with average orientation:
	I0 : dAve : 	(0.00274192284156 0.0278392098 0.0490873852123) : omega : 	0.0575094490319 : d : 	(0.0375095356919 0.38084070704 0.923879532511)
	I1 : dAve : 	(0.00812039796756 0.0267693645798 0.0490873852123) : omega : 	0.0575094490319 : d : 	(0.111087136655 0.366205212247 0.923879532511)
	I2 : dAve : 	(0.0131868107536 0.0246707876912 0.0490873852123) : omega : 	0.0575094490319 : d : 	(0.180395721254 0.337496656517 0.923879532511)
	I3 : dAve : 	(0.0177464617977 0.0216241262672 0.0490873852123) : omega : 	0.0575094490319 : d : 	(0.242771799453 0.295818293547 0.923879532511)
	I4 : dAve : 	(0.0216241262672 0.0177464617977 0.0490873852123) : omega : 	0.0575094490319 : d : 	(0.295818293547 0.242771799453 0.923879532511)
	I5 : dAve : 	(0.0246707876912 0.0131868107536 0.0490873852123) : omega : 	0.0575094490319 : d : 	(0.337496656517 0.180395721254 0.923879532511)
	I6 : dAve : 	(0.0267693645798 0.00812039796756 0.0490873852123) : omega : 	0.0575094490319 : d : 	(0.366205212247 0.111087136655 0.923879532511)
	I7 : dAve : 	(0.0278392098 0.00274192284156 0.0490873852123) : omega : 	0.0575094490319 : d : 	(0.38084070704 0.0375095356919 0.923879532511)
	I8 : dAve : 	(0.0278392098 -0.00274192284156 0.0490873852123) : omega : 	0.0575094490319 : d : 	(0.38084070704 -0.0375095356919 0.923879532511)
	I9 : dAve : 	(0.0267693645798 -0.00812039796756 0.0490873852123) : omega : 	0.0575094490319 : d : 	(0.366205212247 -0.111087136655 0.923879532511)
	I10 : dAve : 	(0.0246707876912 -0.0131868107536 0.0490873852123) : omega : 	0.0575094490319 : d : 	(0.337496656517 -0.180395721254 0.923879532511)
	I11 : dAve : 	(0.0216241262672 -0.0177464617977 0.0490873852123) : omega : 	0.0575094490319 : d : 	(0.295818293547 -0.242771799453 0.923879532511)
	I12 : dAve : 	(0.0177464617977 -0.0216241262672 0.0490873852123) : omega : 	0.0575094490319 : d : 	(0.242771799453 -0.295818293547 0.923879532511)
	I13 : dAve : 	(0.0131868107536 -0.0246707876912 0.0490873852123) : omega : 	0.0575094490319 : d : 	(0.180395721254 -0.337496656517 0.923879532511)
	I14 : dAve : 	(0.00812039796756 -0.0267693645798 0.0490873852123) : omega : 	0.0575094490319 : d : 	(0.111087136655 -0.366205212247 0.923879532511)
	I15 : dAve : 	(0.00274192284156 -0.0278392098 0.0490873852123) : omega : 	0.0575094490319 : d : 	(0.0375095356919 -0.38084070704 0.923879532511)
	I16 : dAve : 	(-0.00274192284156 -0.0278392098 0.0490873852123) : omega : 	0.0575094490319 : d : 	(-0.0375095356919 -0.38084070704 0.923879532511)
	I17 : dAve : 	(-0.00812039796756 -0.0267693645798 0.0490873852123) : omega : 	0.0575094490319 : d : 	(-0.111087136655 -0.366205212247 0.923879532511)
	I18 : dAve : 	(-0.0131868107536 -0.0246707876912 0.0490873852123) : omega : 	0.0575094490319 : d : 	(-0.180395721254 -0.337496656517 0.923879532511)
	I19 : dAve : 	(-0.0177464617977 -0.0216241262672 0.0490873852123) : omega : 	0.0575094490319 : d : 	(-0.242771799453 -0.295818293547 0.923879532511)
	I20 : dAve : 	(-0.0216241262672 -0.0177464617977 0.0490873852123) : omega : 	0.0575094490319 : d : 	(-0.295818293547 -0.242771799453 0.923879532511)
	I21 : dAve : 	(-0.0246707876912 -0.0131868107536 0.0490873852123) : omega : 	0.0575094490319 : d : 	(-0.337496656517 -0.180395721254 0.923879532511)
	I22 : dAve : 	(-0.0267693645798 -0.00812039796756 0.0490873852123) : omega : 	0.0575094490319 : d : 	(-0.366205212247 -0.111087136655 0.923879532511)
	I23 : dAve : 	(-0.0278392098 -0.00274192284156 0.0490873852123) : omega : 	0.0575094490319 : d : 	(-0.38084070704 -0.0375095356919 0.923879532511)
	I24 : dAve : 	(-0.0278392098 0.00274192284156 0.0490873852123) : omega : 	0.0575094490319 : d : 	(-0.38084070704 0.0375095356919 0.923879532511)
	I25 : dAve : 	(-0.0267693645798 0.00812039796756 0.0490873852123) : omega : 	0.0575094490319 : d : 	(-0.366205212247 0.111087136655 0.923879532511)
	I26 : dAve : 	(-0.0246707876912 0.0131868107536 0.0490873852123) : omega : 	0.0575094490319 : d : 	(-0.337496656517 0.180395721254 0.923879532511)
	I27 : dAve : 	(-0.0216241262672 0.0177464617977 0.0490873852123) : omega : 	0.0575094490319 : d : 	(-0.295818293547 0.242771799453 0.923879532511)
	I28 : dAve : 	(-0.0177464617977 0.0216241262672 0.0490873852123) : omega : 	0.0575094490319 : d : 	(-0.242771799453 0.295818293547 0.923879532511)
	I29 : dAve : 	(-0.0131868107536 0.0246707876912 0.0490873852123) : omega : 	0.0575094490319 : d : 	(-0.180395721254 0.337496656517 0.923879532511)
	I30 : dAve : 	(-0.00812039796756 0.0267693645798 0.0490873852123) : omega : 	0.0575094490319 : d : 	(-0.111087136655 0.366205212247 0.923879532511)
	I31 : dAve : 	(-0.00274192284156 0.0278392098 0.0490873852123) : omega : 	0.0575094490319 : d : 	(-0.0375095356919 0.38084070704 0.923879532511)
	I32 : dAve : 	(0.0123492826399 0.125384370808 0.0490873852123) : omega : 	0.138840091817 : d : 	(0.0905560297858 0.91943080004 0.382683432365)
	I33 : dAve : 	(0.0365732719135 0.120565919754 0.0490873852123) : omega : 	0.138840091817 : d : 	(0.268188071917 0.884097590017 0.382683432365)
	I34 : dAve : 	(0.059391770858 0.111114188018 0.0490873852123) : omega : 	0.138840091817 : d : 	(0.435513796846 0.814789005418 0.382683432365)
	I35 : dAve : 	(0.0799278773557 0.0973924003507 0.0490873852123) : omega : 	0.138840091817 : d : 	(0.586102970801 0.714168536279 0.382683432365)
	I36 : dAve : 	(0.0973924003507 0.0799278773557 0.0490873852123) : omega : 	0.138840091817 : d : 	(0.714168536279 0.586102970801 0.382683432365)
	I37 : dAve : 	(0.111114188018 0.059391770858 0.0490873852123) : omega : 	0.138840091817 : d : 	(0.814789005418 0.435513796846 0.382683432365)
	I38 : dAve : 	(0.120565919754 0.0365732719135 0.0490873852123) : omega : 	0.138840091817 : d : 	(0.884097590017 0.268188071917 0.382683432365)
	I39 : dAve : 	(0.125384370808 0.0123492826399 0.0490873852123) : omega : 	0.138840091817 : d : 	(0.91943080004 0.0905560297858 0.382683432365)
	I40 : dAve : 	(0.125384370808 -0.0123492826399 0.0490873852123) : omega : 	0.138840091817 : d : 	(0.91943080004 -0.0905560297858 0.382683432365)
	I41 : dAve : 	(0.120565919754 -0.0365732719135 0.0490873852123) : omega : 	0.138840091817 : d : 	(0.884097590017 -0.268188071917 0.382683432365)
	I42 : dAve : 	(0.111114188018 -0.059391770858 0.0490873852123) : omega : 	0.138840091817 : d : 	(0.814789005418 -0.435513796846 0.382683432365)
	I43 : dAve : 	(0.0973924003507 -0.0799278773557 0.0490873852123) : omega : 	0.138840091817 : d : 	(0.714168536279 -0.586102970801 0.382683432365)
	I44 : dAve : 	(0.0799278773557 -0.0973924003507 0.0490873852123) : omega : 	0.138840091817 : d : 	(0.586102970801 -0.714168536279 0.382683432365)
	I45 : dAve : 	(0.059391770858 -0.111114188018 0.0490873852123) : omega : 	0.138840091817 : d : 	(0.435513796846 -0.814789005418 0.382683432365)
	I46 : dAve : 	(0.0365732719135 -0.120565919754 0.0490873852123) : omega : 	0.138840091817 : d : 	(0.268188071917 -0.884097590017 0.382683432365)
	I47 : dAve : 	(0.0123492826399 -0.125384370808 0.0490873852123) : omega : 	0.138840091817 : d : 	(0.0905560297858 -0.91943080004 0.382683432365)
	I48 : dAve : 	(-0.0123492826399 -0.125384370808 0.0490873852123) : omega : 	0.138840091817 : d : 	(-0.0905560297858 -0.91943080004 0.382683432365)
	I49 : dAve : 	(-0.0365732719135 -0.120565919754 0.0490873852123) : omega : 	0.138840091817 : d : 	(-0.268188071917 -0.884097590017 0.382683432365)
	I50 : dAve : 	(-0.059391770858 -0.111114188018 0.0490873852123) : omega : 	0.138840091817 : d : 	(-0.435513796846 -0.814789005418 0.382683432365)
	I51 : dAve : 	(-0.0799278773557 -0.0973924003507 0.0490873852123) : omega : 	0.138840091817 : d : 	(-0.586102970801 -0.714168536279 0.382683432365)
	I52 : dAve : 	(-0.0973924003507 -0.0799278773557 0.0490873852123) : omega : 	0.138840091817 : d : 	(-0.714168536279 -0.586102970801 0.382683432365)
	I53 : dAve : 	(-0.111114188018 -0.059391770858 0.0490873852123) : omega : 	0.138840091817 : d : 	(-0.814789005418 -0.435513796846 0.382683432365)
	I54 : dAve : 	(-0.120565919754 -0.0365732719135 0.0490873852123) : omega : 	0.138840091817 : d : 	(-0.884097590017 -0.268188071917 0.382683432365)
	I55 : dAve : 	(-0.125384370808 -0.0123492826399 0.0490873852123) : omega : 	0.138840091817 : d : 	(-0.91943080004 -0.0905560297858 0.382683432365)
	I56 : dAve : 	(-0.125384370808 0.0123492826399 0.0490873852123) : omega : 	0.138840091817 : d : 	(-0.91943080004 0.0905560297858 0.382683432365)
	I57 : dAve : 	(-0.120565919754 0.0365732719135 0.0490873852123) : omega : 	0.138840091817 : d : 	(-0.884097590017 0.268188071917 0.382683432365)
	I58 : dAve : 	(-0.111114188018 0.059391770858 0.0490873852123) : omega : 	0.138840091817 : d : 	(-0.814789005418 0.435513796846 0.382683432365)
	I59 : dAve : 	(-0.0973924003507 0.0799278773557 0.0490873852123) : omega : 	0.138840091817 : d : 	(-0.714168536279 0.586102970801 0.382683432365)
	I60 : dAve : 	(-0.0799278773557 0.0973924003507 0.0490873852123) : omega : 	0.138840091817 : d : 	(-0.586102970801 0.714168536279 0.382683432365)
	I61 : dAve : 	(-0.059391770858 0.111114188018 0.0490873852123) : omega : 	0.138840091817 : d : 	(-0.435513796846 0.814789005418 0.382683432365)
	I62 : dAve : 	(-0.0365732719135 0.120565919754 0.0490873852123) : omega : 	0.138840091817 : d : 	(-0.268188071917 0.884097590017 0.382683432365)
	I63 : dAve : 	(-0.0123492826399 0.125384370808 0.0490873852123) : omega : 	0.138840091817 : d : 	(-0.0905560297858 0.91943080004 0.382683432365)
	I64 : dAve : 	(0.0123492826399 0.125384370808 -0.0490873852123) : omega : 	0.138840091817 : d : 	(0.0905560297858 0.91943080004 -0.382683432365)
	I65 : dAve : 	(0.0365732719135 0.120565919754 -0.0490873852123) : omega : 	0.138840091817 : d : 	(0.268188071917 0.884097590017 -0.382683432365)
	I66 : dAve : 	(0.059391770858 0.111114188018 -0.0490873852123) : omega : 	0.138840091817 : d : 	(0.435513796846 0.814789005418 -0.382683432365)
	I67 : dAve : 	(0.0799278773557 0.0973924003507 -0.0490873852123) : omega : 	0.138840091817 : d : 	(0.586102970801 0.714168536279 -0.382683432365)
	I68 : dAve : 	(0.0973924003507 0.0799278773557 -0.0490873852123) : omega : 	0.138840091817 : d : 	(0.714168536279 0.586102970801 -0.382683432365)
	I69 : dAve : 	(0.111114188018 0.059391770858 -0.0490873852123) : omega : 	0.138840091817 : d : 	(0.814789005418 0.435513796846 -0.382683432365)
	I70 : dAve : 	(0.120565919754 0.0365732719135 -0.0490873852123) : omega : 	0.138840091817 : d : 	(0.884097590017 0.268188071917 -0.382683432365)
	I71 : dAve : 	(0.125384370808 0.0123492826399 -0.0490873852123) : omega : 	0.138840091817 : d : 	(0.91943080004 0.0905560297858 -0.382683432365)
	I72 : dAve : 	(0.125384370808 -0.0123492826399 -0.0490873852123) : omega : 	0.138840091817 : d : 	(0.91943080004 -0.0905560297858 -0.382683432365)
	I73 : dAve : 	(0.120565919754 -0.0365732719135 -0.0490873852123) : omega : 	0.138840091817 : d : 	(0.884097590017 -0.268188071917 -0.382683432365)
	I74 : dAve : 	(0.111114188018 -0.059391770858 -0.0490873852123) : omega : 	0.138840091817 : d : 	(0.814789005418 -0.435513796846 -0.382683432365)
	I75 : dAve : 	(0.0973924003507 -0.0799278773557 -0.0490873852123) : omega : 	0.138840091817 : d : 	(0.714168536279 -0.586102970801 -0.382683432365)
	I76 : dAve : 	(0.0799278773557 -0.0973924003507 -0.0490873852123) : omega : 	0.138840091817 : d : 	(0.586102970801 -0.714168536279 -0.382683432365)
	I77 : dAve : 	(0.059391770858 -0.111114188018 -0.0490873852123) : omega : 	0.138840091817 : d : 	(0.435513796846 -0.814789005418 -0.382683432365)
	I78 : dAve : 	(0.0365732719135 -0.120565919754 -0.0490873852123) : omega : 	0.138840091817 : d : 	(0.268188071917 -0.884097590017 -0.382683432365)
	I79 : dAve : 	(0.0123492826399 -0.125384370808 -0.0490873852123) : omega : 	0.138840091817 : d : 	(0.0905560297858 -0.91943080004 -0.382683432365)
	I80 : dAve : 	(-0.0123492826399 -0.125384370808 -0.0490873852123) : omega : 	0.138840091817 : d : 	(-0.0905560297858 -0.91943080004 -0.382683432365)
	I81 : dAve : 	(-0.0365732719135 -0.120565919754 -0.0490873852123) : omega : 	0.138840091817 : d : 	(-0.268188071917 -0.884097590017 -0.382683432365)
	I82 : dAve : 	(-0.059391770858 -0.111114188018 -0.0490873852123) : omega : 	0.138840091817 : d : 	(-0.435513796846 -0.814789005418 -0.382683432365)
	I83 : dAve : 	(-0.0799278773557 -0.0973924003507 -0.0490873852123) : omega : 	0.138840091817 : d : 	(-0.586102970801 -0.714168536279 -0.382683432365)
	I84 : dAve : 	(-0.0973924003507 -0.0799278773557 -0.0490873852123) : omega : 	0.138840091817 : d : 	(-0.714168536279 -0.586102970801 -0.382683432365)
	I85 : dAve : 	(-0.111114188018 -0.059391770858 -0.0490873852123) : omega : 	0.138840091817 : d : 	(-0.814789005418 -0.435513796846 -0.382683432365)
	I86 : dAve : 	(-0.120565919754 -0.0365732719135 -0.0490873852123) : omega : 	0.138840091817 : d : 	(-0.884097590017 -0.268188071917 -0.382683432365)
	I87 : dAve : 	(-0.125384370808 -0.0123492826399 -0.0490873852123) : omega : 	0.138840091817 : d : 	(-0.91943080004 -0.0905560297858 -0.382683432365)
	I88 : dAve : 	(-0.125384370808 0.0123492826399 -0.0490873852123) : omega : 	0.138840091817 : d : 	(-0.91943080004 0.0905560297858 -0.382683432365)
	I89 : dAve : 	(-0.120565919754 0.0365732719135 -0.0490873852123) : omega : 	0.138840091817 : d : 	(-0.884097590017 0.268188071917 -0.382683432365)
	I90 : dAve : 	(-0.111114188018 0.059391770858 -0.0490873852123) : omega : 	0.138840091817 : d : 	(-0.814789005418 0.435513796846 -0.382683432365)
	I91 : dAve : 	(-0.0973924003507 0.0799278773557 -0.0490873852123) : omega : 	0.138840091817 : d : 	(-0.714168536279 0.586102970801 -0.382683432365)
	I92 : dAve : 	(-0.0799278773557 0.0973924003507 -0.0490873852123) : omega : 	0.138840091817 : d : 	(-0.586102970801 0.714168536279 -0.382683432365)
	I93 : dAve : 	(-0.059391770858 0.111114188018 -0.0490873852123) : omega : 	0.138840091817 : d : 	(-0.435513796846 0.814789005418 -0.382683432365)
	I94 : dAve : 	(-0.0365732719135 0.120565919754 -0.0490873852123) : omega : 	0.138840091817 : d : 	(-0.268188071917 0.884097590017 -0.382683432365)
	I95 : dAve : 	(-0.0123492826399 0.125384370808 -0.0490873852123) : omega : 	0.138840091817 : d : 	(-0.0905560297858 0.91943080004 -0.382683432365)
	I96 : dAve : 	(0.00274192284156 0.0278392098 -0.0490873852123) : omega : 	0.0575094490319 : d : 	(0.0375095356919 0.38084070704 -0.923879532511)
	I97 : dAve : 	(0.00812039796756 0.0267693645798 -0.0490873852123) : omega : 	0.0575094490319 : d : 	(0.111087136655 0.366205212247 -0.923879532511)
	I98 : dAve : 	(0.0131868107536 0.0246707876912 -0.0490873852123) : omega : 	0.0575094490319 : d : 	(0.180395721254 0.337496656517 -0.923879532511)
	I99 : dAve : 	(0.0177464617977 0.0216241262672 -0.0490873852123) : omega : 	0.0575094490319 : d : 	(0.242771799453 0.295818293547 -0.923879532511)
	I100 : dAve : 	(0.0216241262672 0.0177464617977 -0.0490873852123) : omega : 	0.0575094490319 : d : 	(0.295818293547 0.242771799453 -0.923879532511)
	I101 : dAve : 	(0.0246707876912 0.0131868107536 -0.0490873852123) : omega : 	0.0575094490319 : d : 	(0.337496656517 0.180395721254 -0.923879532511)
	I102 : dAve : 	(0.0267693645798 0.00812039796756 -0.0490873852123) : omega : 	0.0575094490319 : d : 	(0.366205212247 0.111087136655 -0.923879532511)
	I103 : dAve : 	(0.0278392098 0.00274192284156 -0.0490873852123) : omega : 	0.0575094490319 : d : 	(0.38084070704 0.0375095356919 -0.923879532511)
	I104 : dAve : 	(0.0278392098 -0.00274192284156 -0.0490873852123) : omega : 	0.0575094490319 : d : 	(0.38084070704 -0.0375095356919 -0.923879532511)
	I105 : dAve : 	(0.0267693645798 -0.00812039796756 -0.0490873852123) : omega : 	0.0575094490319 : d : 	(0.366205212247 -0.111087136655 -0.923879532511)
	I106 : dAve : 	(0.0246707876912 -0.0131868107536 -0.0490873852123) : omega : 	0.0575094490319 : d : 	(0.337496656517 -0.180395721254 -0.923879532511)
	I107 : dAve : 	(0.0216241262672 -0.0177464617977 -0.0490873852123) : omega : 	0.0575094490319 : d : 	(0.295818293547 -0.242771799453 -0.923879532511)
	I108 : dAve : 	(0.0177464617977 -0.0216241262672 -0.0490873852123) : omega : 	0.0575094490319 : d : 	(0.242771799453 -0.295818293547 -0.923879532511)
	I109 : dAve : 	(0.0131868107536 -0.0246707876912 -0.0490873852123) : omega : 	0.0575094490319 : d : 	(0.180395721254 -0.337496656517 -0.923879532511)
	I110 : dAve : 	(0.00812039796756 -0.0267693645798 -0.0490873852123) : omega : 	0.0575094490319 : d : 	(0.111087136655 -0.366205212247 -0.923879532511)
	I111 : dAve : 	(0.00274192284156 -0.0278392098 -0.0490873852123) : omega : 	0.0575094490319 : d : 	(0.0375095356919 -0.38084070704 -0.923879532511)
	I112 : dAve : 	(-0.00274192284156 -0.0278392098 -0.0490873852123) : omega : 	0.0575094490319 : d : 	(-0.0375095356919 -0.38084070704 -0.923879532511)
	I113 : dAve : 	(-0.00812039796756 -0.0267693645798 -0.0490873852123) : omega : 	0.0575094490319 : d : 	(-0.111087136655 -0.366205212247 -0.923879532511)
	I114 : dAve : 	(-0.0131868107536 -0.0246707876912 -0.0490873852123) : omega : 	0.0575094490319 : d : 	(-0.180395721254 -0.337496656517 -0.923879532511)
	I115 : dAve : 	(-0.0177464617977 -0.0216241262672 -0.0490873852123) : omega : 	0.0575094490319 : d : 	(-0.242771799453 -0.295818293547 -0.923879532511)
	I116 : dAve : 	(-0.0216241262672 -0.0177464617977 -0.0490873852123) : omega : 	0.0575094490319 : d : 	(-0.295818293547 -0.242771799453 -0.923879532511)
	I117 : dAve : 	(-0.0246707876912 -0.0131868107536 -0.0490873852123) : omega : 	0.0575094490319 : d : 	(-0.337496656517 -0.180395721254 -0.923879532511)
	I118 : dAve : 	(-0.0267693645798 -0.00812039796756 -0.0490873852123) : omega : 	0.0575094490319 : d : 	(-0.366205212247 -0.111087136655 -0.923879532511)
	I119 : dAve : 	(-0.0278392098 -0.00274192284156 -0.0490873852123) : omega : 	0.0575094490319 : d : 	(-0.38084070704 -0.0375095356919 -0.923879532511)
	I120 : dAve : 	(-0.0278392098 0.00274192284156 -0.0490873852123) : omega : 	0.0575094490319 : d : 	(-0.38084070704 0.0375095356919 -0.923879532511)
	I121 : dAve : 	(-0.0267693645798 0.00812039796756 -0.0490873852123) : omega : 	0.0575094490319 : d : 	(-0.366205212247 0.111087136655 -0.923879532511)
	I122 : dAve : 	(-0.0246707876912 0.0131868107536 -0.0490873852123) : omega : 	0.0575094490319 : d : 	(-0.337496656517 0.180395721254 -0.923879532511)
	I123 : dAve : 	(-0.0216241262672 0.0177464617977 -0.0490873852123) : omega : 	0.0575094490319 : d : 	(-0.295818293547 0.242771799453 -0.923879532511)
	I124 : dAve : 	(-0.0177464617977 0.0216241262672 -0.0490873852123) : omega : 	0.0575094490319 : d : 	(-0.242771799453 0.295818293547 -0.923879532511)
	I125 : dAve : 	(-0.0131868107536 0.0246707876912 -0.0490873852123) : omega : 	0.0575094490319 : d : 	(-0.180395721254 0.337496656517 -0.923879532511)
	I126 : dAve : 	(-0.00812039796756 0.0267693645798 -0.0490873852123) : omega : 	0.0575094490319 : d : 	(-0.111087136655 0.366205212247 -0.923879532511)
	I127 : dAve : 	(-0.00274192284156 0.0278392098 -0.0490873852123) : omega : 	0.0575094490319 : d : 	(-0.0375095356919 0.38084070704 -0.923879532511)
Total omega : 12.5663706144

Courant Number mean: 0 max: 0

Starting time loop

Sampled set:
    data -> csv

Sampled set:
    data -> csv

Sampled surface:
    yNormal -> ensight
        sampledCuttingPlane: yNormal : plane:(0 1 0) (0 0 0) offsets:(0)

Sampled surface:
    zNormal -> ensight
        sampledCuttingPlane: zNormal : plane:(0 0 1) (0 0 0) offsets:(0)

Sampled surface:
    patchAll -> ensight
        sampledPatch: patchAll : patches:(".*WW.*")

deltaT = 1
Time = 1

PIMPLE: iteration 1
Radiation solver iter: 0
DILUPBiCGStab:  Solving for ILambda_0_0, Initial residual = 1, Final residual = 2.03089855919e-63, No Iterations 2
DILUPBiCGStab:  Solving for ILambda_1_0, Initial residual = 1, Final residual = 1.17903199055e-63, No Iterations 2
DILUPBiCGStab:  Solving for ILambda_2_0, Initial residual = 1, Final residual = 1.40471677335e-63, No Iterations 2
DILUPBiCGStab:  Solving for ILambda_3_0, Initial residual = 1, Final residual = 3.12418638731e-63, No Iterations 2
DILUPBiCGStab:  Solving for ILambda_4_0, Initial residual = 1, Final residual = 2.95278287177e-63, No Iterations 2
DILUPBiCGStab:  Solving for ILambda_5_0, Initial residual = 1, Final residual = 1.13384965609e-63, No Iterations 2
DILUPBiCGStab:  Solving for ILambda_6_0, Initial residual = 1, Final residual = 1.31954384855e-63, No Iterations 2
DILUPBiCGStab:  Solving for ILambda_7_0, Initial residual = 1, Final residual = 1.49620503517e-63, No Iterations 2
DILUPBiCGStab:  Solving for ILambda_8_0, Initial residual = 1, Final residual = 1.58341860537e-61, No Iterations 24
DILUPBiCGStab:  Solving for ILambda_9_0, Initial residual = 1, Final residual = 2.33325253187e-62, No Iterations 36
DILUPBiCGStab:  Solving for ILambda_10_0, Initial residual = 1, Final residual = 6.57638510897e-61, No Iterations 40
DILUPBiCGStab:  Solving for ILambda_11_0, Initial residual = 1, Final residual = 2.22295134091e-61, No Iterations 43
DILUPBiCGStab:  Solving for ILambda_12_0, Initial residual = 1, Final residual = 7.95639618049e-61, No Iterations 42
DILUPBiCGStab:  Solving for ILambda_13_0, Initial residual = 1, Final residual = 5.63598160991e-61, No Iterations 41
DILUPBiCGStab:  Solving for ILambda_14_0, Initial residual = 1, Final residual = 4.28398945211e-61, No Iterations 37
DILUPBiCGStab:  Solving for ILambda_15_0, Initial residual = 1, Final residual = 2.31174157444e-61, No Iterations 32
DILUPBiCGStab:  Solving for ILambda_16_0, Initial residual = 1, Final residual = 8.22851378638e-62, No Iterations 31
DILUPBiCGStab:  Solving for ILambda_17_0, Initial residual = 1, Final residual = 1.48269344369e-61, No Iterations 32
DILUPBiCGStab:  Solving for ILambda_18_0, Initial residual = 1, Final residual = 7.26383322661e-62, No Iterations 32
DILUPBiCGStab:  Solving for ILambda_19_0, Initial residual = 1, Final residual = 5.75529637568e-61, No Iterations 32
DILUPBiCGStab:  Solving for ILambda_20_0, Initial residual = 1, Final residual = 7.20324423881e-62, No Iterations 32
DILUPBiCGStab:  Solving for ILambda_21_0, Initial residual = 1, Final residual = 6.82600873326e-62, No Iterations 32
DILUPBiCGStab:  Solving for ILambda_22_0, Initial residual = 1, Final residual = 5.29343996576e-62, No Iterations 32
DILUPBiCGStab:  Solving for ILambda_23_0, Initial residual = 1, Final residual = 5.99662147806e-61, No Iterations 30
DILUPBiCGStab:  Solving for ILambda_24_0, Initial residual = 1, Final residual = 2.35527925381e-61, No Iterations 32
DILUPBiCGStab:  Solving for ILambda_25_0, Initial residual = 1, Final residual = 4.00113327616e-61, No Iterations 37
DILUPBiCGStab:  Solving for ILambda_26_0, Initial residual = 1, Final residual = 1.23068745313e-61, No Iterations 42
DILUPBiCGStab:  Solving for ILambda_27_0, Initial residual = 1, Final residual = 2.05131051751e-61, No Iterations 43
DILUPBiCGStab:  Solving for ILambda_28_0, Initial residual = 1, Final residual = 1.38595584978e-61, No Iterations 43
DILUPBiCGStab:  Solving for ILambda_29_0, Initial residual = 1, Final residual = 1.65133849326e-61, No Iterations 40
DILUPBiCGStab:  Solving for ILambda_30_0, Initial residual = 1, Final residual = 4.40058545109e-61, No Iterations 35
DILUPBiCGStab:  Solving for ILambda_31_0, Initial residual = 1, Final residual = 1.01881990402e-61, No Iterations 24
DILUPBiCGStab:  Solving for ILambda_32_0, Initial residual = 1, Final residual = 2.6576955452e-63, No Iterations 2
DILUPBiCGStab:  Solving for ILambda_33_0, Initial residual = 1, Final residual = 1.33000434573e-63, No Iterations 2
DILUPBiCGStab:  Solving for ILambda_34_0, Initial residual = 1, Final residual = 2.28996367067e-63, No Iterations 2
DILUPBiCGStab:  Solving for ILambda_35_0, Initial residual = 1, Final residual = 2.31489127927e-63, No Iterations 2
DILUPBiCGStab:  Solving for ILambda_36_0, Initial residual = 1, Final residual = 1.59627142282e-63, No Iterations 2
DILUPBiCGStab:  Solving for ILambda_37_0, Initial residual = 1, Final residual = 2.22175798821e-63, No Iterations 2
DILUPBiCGStab:  Solving for ILambda_38_0, Initial residual = 1, Final residual = 1.28622664684e-63, No Iterations 2
DILUPBiCGStab:  Solving for ILambda_39_0, Initial residual = 1, Final residual = 4.32088764696e-63, No Iterations 2
DILUPBiCGStab:  Solving for ILambda_40_0, Initial residual = 1, Final residual = 1.08996337736e-61, No Iterations 33
DILUPBiCGStab:  Solving for ILambda_41_0, Initial residual = 1, Final residual = 3.23997198765e-61, No Iterations 50
DILUPBiCGStab:  Solving for ILambda_42_0, Initial residual = 1, Final residual = 6.21486284794e-61, No Iterations 60
DILUPBiCGStab:  Solving for ILambda_43_0, Initial residual = 1, Final residual = 1.64552979617e-61, No Iterations 68
DILUPBiCGStab:  Solving for ILambda_44_0, Initial residual = 1, Final residual = 3.34239112434e-61, No Iterations 66
DILUPBiCGStab:  Solving for ILambda_45_0, Initial residual = 1, Final residual = 5.2601385297e-61, No Iterations 60
DILUPBiCGStab:  Solving for ILambda_46_0, Initial residual = 1, Final residual = 1.85987064302e-61, No Iterations 52
DILUPBiCGStab:  Solving for ILambda_47_0, Initial residual = 1, Final residual = 9.43393729375e-61, No Iterations 39
DILUPBiCGStab:  Solving for ILambda_48_0, Initial residual = 1, Final residual = 4.25188768797e-62, No Iterations 33
DILUPBiCGStab:  Solving for ILambda_49_0, Initial residual = 1, Final residual = 6.59452934968e-61, No Iterations 34
DILUPBiCGStab:  Solving for ILambda_50_0, Initial residual = 1, Final residual = 5.14159637753e-61, No Iterations 35
DILUPBiCGStab:  Solving for ILambda_51_0, Initial residual = 1, Final residual = 1.22823942407e-61, No Iterations 36
DILUPBiCGStab:  Solving for ILambda_52_0, Initial residual = 1, Final residual = 6.09261633052e-61, No Iterations 37
DILUPBiCGStab:  Solving for ILambda_53_0, Initial residual = 1, Final residual = 3.05324257691e-61, No Iterations 35
DILUPBiCGStab:  Solving for ILambda_54_0, Initial residual = 1, Final residual = 6.92878120242e-63, No Iterations 35
DILUPBiCGStab:  Solving for ILambda_55_0, Initial residual = 1, Final residual = 1.07855195622e-61, No Iterations 33
DILUPBiCGStab:  Solving for ILambda_56_0, Initial residual = 1, Final residual = 5.00635285058e-61, No Iterations 39
DILUPBiCGStab:  Solving for ILambda_57_0, Initial residual = 1, Final residual = 5.11273781316e-61, No Iterations 52
DILUPBiCGStab:  Solving for ILambda_58_0, Initial residual = 1, Final residual = 3.89977309293e-62, No Iterations 61
DILUPBiCGStab:  Solving for ILambda_59_0, Initial residual = 1, Final residual = 9.54272151919e-61, No Iterations 66
DILUPBiCGStab:  Solving for ILambda_60_0, Initial residual = 1, Final residual = 4.8051098207e-61, No Iterations 68
DILUPBiCGStab:  Solving for ILambda_61_0, Initial residual = 1, Final residual = 4.28461315919e-61, No Iterations 60
DILUPBiCGStab:  Solving for ILambda_62_0, Initial residual = 1, Final residual = 3.75535004774e-61, No Iterations 50
DILUPBiCGStab:  Solving for ILambda_63_0, Initial residual = 1, Final residual = 7.74181068624e-61, No Iterations 33
DILUPBiCGStab:  Solving for ILambda_64_0, Initial residual = 1, Final residual = 9.59157661274e-61, No Iterations 33
DILUPBiCGStab:  Solving for ILambda_65_0, Initial residual = 1, Final residual = 1.76757767441e-61, No Iterations 33
DILUPBiCGStab:  Solving for ILambda_66_0, Initial residual = 1, Final residual = 5.24545997037e-61, No Iterations 34
DILUPBiCGStab:  Solving for ILambda_67_0, Initial residual = 1, Final residual = 1.71383853964e-61, No Iterations 34
DILUPBiCGStab:  Solving for ILambda_68_0, Initial residual = 1, Final residual = 1.91189008098e-61, No Iterations 34
DILUPBiCGStab:  Solving for ILambda_69_0, Initial residual = 1, Final residual = 2.33894323533e-62, No Iterations 34
DILUPBiCGStab:  Solving for ILambda_70_0, Initial residual = 1, Final residual = 7.54513956111e-61, No Iterations 33
DILUPBiCGStab:  Solving for ILambda_71_0, Initial residual = 1, Final residual = 8.09955862253e-62, No Iterations 33
DILUPBiCGStab:  Solving for ILambda_72_0, Initial residual = 1, Final residual = 9.32201723336e-61, No Iterations 39
DILUPBiCGStab:  Solving for ILambda_73_0, Initial residual = 1, Final residual = 8.24202285076e-61, No Iterations 52
DILUPBiCGStab:  Solving for ILambda_74_0, Initial residual = 1, Final residual = 2.34425503081e-61, No Iterations 61
DILUPBiCGStab:  Solving for ILambda_75_0, Initial residual = 1, Final residual = 7.10882095705e-61, No Iterations 66
DILUPBiCGStab:  Solving for ILambda_76_0, Initial residual = 1, Final residual = 6.32061532622e-61, No Iterations 68
DILUPBiCGStab:  Solving for ILambda_77_0, Initial residual = 1, Final residual = 9.80450677461e-61, No Iterations 60
DILUPBiCGStab:  Solving for ILambda_78_0, Initial residual = 1, Final residual = 9.03896604604e-61, No Iterations 50
DILUPBiCGStab:  Solving for ILambda_79_0, Initial residual = 1, Final residual = 1.09926317624e-61, No Iterations 33
DILUPBiCGStab:  Solving for ILambda_80_0, Initial residual = 1, Final residual = 1.49823265635e-63, No Iterations 2
DILUPBiCGStab:  Solving for ILambda_81_0, Initial residual = 1, Final residual = 2.02337866239e-63, No Iterations 2
DILUPBiCGStab:  Solving for ILambda_82_0, Initial residual = 1, Final residual = 2.24034434295e-63, No Iterations 2
DILUPBiCGStab:  Solving for ILambda_83_0, Initial residual = 1, Final residual = 1.78651997954e-63, No Iterations 2
DILUPBiCGStab:  Solving for ILambda_84_0, Initial residual = 1, Final residual = 2.2801184057e-63, No Iterations 2
DILUPBiCGStab:  Solving for ILambda_85_0, Initial residual = 1, Final residual = 2.1580299228e-63, No Iterations 2
DILUPBiCGStab:  Solving for ILambda_86_0, Initial residual = 1, Final residual = 1.14335188066e-63, No Iterations 2
DILUPBiCGStab:  Solving for ILambda_87_0, Initial residual = 1, Final residual = 1.21988546761e-63, No Iterations 2
DILUPBiCGStab:  Solving for ILambda_88_0, Initial residual = 1, Final residual = 9.01174657937e-61, No Iterations 33
DILUPBiCGStab:  Solving for ILambda_89_0, Initial residual = 1, Final residual = 2.29209174445e-61, No Iterations 50
DILUPBiCGStab:  Solving for ILambda_90_0, Initial residual = 1, Final residual = 9.03708566643e-61, No Iterations 60
DILUPBiCGStab:  Solving for ILambda_91_0, Initial residual = 1, Final residual = 8.95898688143e-61, No Iterations 68
DILUPBiCGStab:  Solving for ILambda_92_0, Initial residual = 1, Final residual = 3.38060629259e-61, No Iterations 66
DILUPBiCGStab:  Solving for ILambda_93_0, Initial residual = 1, Final residual = 8.1390858989e-62, No Iterations 61
DILUPBiCGStab:  Solving for ILambda_94_0, Initial residual = 1, Final residual = 6.30519973372e-61, No Iterations 52
DILUPBiCGStab:  Solving for ILambda_95_0, Initial residual = 1, Final residual = 2.15324802938e-61, No Iterations 39
DILUPBiCGStab:  Solving for ILambda_96_0, Initial residual = 1, Final residual = 1.77252426862e-61, No Iterations 31
DILUPBiCGStab:  Solving for ILambda_97_0, Initial residual = 1, Final residual = 5.36178611125e-61, No Iterations 32
DILUPBiCGStab:  Solving for ILambda_98_0, Initial residual = 1, Final residual = 3.16333190778e-61, No Iterations 32
DILUPBiCGStab:  Solving for ILambda_99_0, Initial residual = 1, Final residual = 5.62016943937e-61, No Iterations 33
DILUPBiCGStab:  Solving for ILambda_100_0, Initial residual = 1, Final residual = 5.29765329261e-62, No Iterations 33
DILUPBiCGStab:  Solving for ILambda_101_0, Initial residual = 1, Final residual = 1.75518687608e-61, No Iterations 32
DILUPBiCGStab:  Solving for ILambda_102_0, Initial residual = 1, Final residual = 4.76742369208e-61, No Iterations 32
DILUPBiCGStab:  Solving for ILambda_103_0, Initial residual = 1, Final residual = 2.11910031166e-61, No Iterations 31
DILUPBiCGStab:  Solving for ILambda_104_0, Initial residual = 1, Final residual = 1.65687203446e-61, No Iterations 31
DILUPBiCGStab:  Solving for ILambda_105_0, Initial residual = 1, Final residual = 1.31767844751e-61, No Iterations 37
DILUPBiCGStab:  Solving for ILambda_106_0, Initial residual = 1, Final residual = 8.89316040002e-61, No Iterations 41
DILUPBiCGStab:  Solving for ILambda_107_0, Initial residual = 1, Final residual = 3.87575149308e-61, No Iterations 43
DILUPBiCGStab:  Solving for ILambda_108_0, Initial residual = 1, Final residual = 2.53485466382e-61, No Iterations 42
DILUPBiCGStab:  Solving for ILambda_109_0, Initial residual = 1, Final residual = 1.02978134145e-61, No Iterations 42
DILUPBiCGStab:  Solving for ILambda_110_0, Initial residual = 1, Final residual = 2.06220190047e-61, No Iterations 35
DILUPBiCGStab:  Solving for ILambda_111_0, Initial residual = 1, Final residual = 1.41019166047e-61, No Iterations 24
DILUPBiCGStab:  Solving for ILambda_112_0, Initial residual = 1, Final residual = 1.45724282771e-63, No Iterations 2
DILUPBiCGStab:  Solving for ILambda_113_0, Initial residual = 1, Final residual = 1.21051107899e-63, No Iterations 2
DILUPBiCGStab:  Solving for ILambda_114_0, Initial residual = 1, Final residual = 1.21221854497e-63, No Iterations 2
DILUPBiCGStab:  Solving for ILambda_115_0, Initial residual = 1, Final residual = 1.16187045432e-63, No Iterations 2
DILUPBiCGStab:  Solving for ILambda_116_0, Initial residual = 1, Final residual = 1.77473758938e-63, No Iterations 2
DILUPBiCGStab:  Solving for ILambda_117_0, Initial residual = 1, Final residual = 1.11165128848e-63, No Iterations 2
DILUPBiCGStab:  Solving for ILambda_118_0, Initial residual = 1, Final residual = 1.04883727662e-63, No Iterations 2
DILUPBiCGStab:  Solving for ILambda_119_0, Initial residual = 1, Final residual = 1.32706172772e-63, No Iterations 2
DILUPBiCGStab:  Solving for ILambda_120_0, Initial residual = 1, Final residual = 2.36863008688e-61, No Iterations 24
DILUPBiCGStab:  Solving for ILambda_121_0, Initial residual = 1, Final residual = 4.08234425317e-61, No Iterations 35
DILUPBiCGStab:  Solving for ILambda_122_0, Initial residual = 1, Final residual = 5.77830008527e-61, No Iterations 40
DILUPBiCGStab:  Solving for ILambda_123_0, Initial residual = 1, Final residual = 6.43032130138e-62, No Iterations 43
DILUPBiCGStab:  Solving for ILambda_124_0, Initial residual = 1, Final residual = 3.40857231655e-61, No Iterations 43
DILUPBiCGStab:  Solving for ILambda_125_0, Initial residual = 1, Final residual = 2.94740514344e-61, No Iterations 41
DILUPBiCGStab:  Solving for ILambda_126_0, Initial residual = 1, Final residual = 4.49071253331e-61, No Iterations 37
DILUPBiCGStab:  Solving for ILambda_127_0, Initial residual = 1, Final residual = 2.16607841092e-61, No Iterations 31
Radiation solver iter: 1
DILUPBiCGStab:  Solving for ILambda_0_0, Initial residual = 7.8567215941e-16, Final residual = 2.07443876744e-63, No Iterations 2
DILUPBiCGStab:  Solving for ILambda_1_0, Initial residual = 8.61024368607e-16, Final residual = 2.04336665515e-63, No Iterations 2
DILUPBiCGStab:  Solving for ILambda_2_0, Initial residual = 9.19315443708e-16, Final residual = 2.13613485993e-63, No Iterations 2
DILUPBiCGStab:  Solving for ILambda_3_0, Initial residual = 9.3153751371e-16, Final residual = 2.76666108047e-63, No Iterations 2
DILUPBiCGStab:  Solving for ILambda_4_0, Initial residual = 9.73468364393e-16, Final residual = 3.66175342583e-63, No Iterations 2
DILUPBiCGStab:  Solving for ILambda_5_0, Initial residual = 9.66937191487e-16, Final residual = 2.13732330601e-63, No Iterations 2
DILUPBiCGStab:  Solving for ILambda_6_0, Initial residual = 8.89822170658e-16, Final residual = 1.9588063806e-63, No Iterations 2
DILUPBiCGStab:  Solving for ILambda_7_0, Initial residual = 7.93106152928e-16, Final residual = 3.19466840117e-63, No Iterations 2
DILUPBiCGStab:  Solving for ILambda_8_0, Initial residual = 1.67059068167e-15, Final residual = 1.29034987799e-61, No Iterations 18
DILUPBiCGStab:  Solving for ILambda_9_0, Initial residual = 1.79020013623e-15, Final residual = 4.09335785383e-61, No Iterations 25
DILUPBiCGStab:  Solving for ILambda_10_0, Initial residual = 2.08691743307e-15, Final residual = 5.09364225694e-61, No Iterations 30
DILUPBiCGStab:  Solving for ILambda_11_0, Initial residual = 1.92117302944e-15, Final residual = 1.55000617359e-61, No Iterations 32
DILUPBiCGStab:  Solving for ILambda_12_0, Initial residual = 2.07814484484e-15, Final residual = 4.6568940842e-61, No Iterations 31
DILUPBiCGStab:  Solving for ILambda_13_0, Initial residual = 2.14417991812e-15, Final residual = 2.61359185889e-61, No Iterations 31
DILUPBiCGStab:  Solving for ILambda_14_0, Initial residual = 2.08211847923e-15, Final residual = 6.47484182778e-61, No Iterations 28
DILUPBiCGStab:  Solving for ILambda_15_0, Initial residual = 1.99755110935e-15, Final residual = 4.56886126779e-61, No Iterations 25
DILUPBiCGStab:  Solving for ILambda_16_0, Initial residual = 2.02297217195e-15, Final residual = 1.2720733575e-61, No Iterations 23
DILUPBiCGStab:  Solving for ILambda_17_0, Initial residual = 2.33455269699e-15, Final residual = 1.13310081152e-63, No Iterations 25
DILUPBiCGStab:  Solving for ILambda_18_0, Initial residual = 2.38574493713e-15, Final residual = 2.97556469275e-61, No Iterations 25
DILUPBiCGStab:  Solving for ILambda_19_0, Initial residual = 2.40795513999e-15, Final residual = 6.66409882625e-61, No Iterations 25
DILUPBiCGStab:  Solving for ILambda_20_0, Initial residual = 2.08432182381e-15, Final residual = 7.38765692189e-61, No Iterations 24
DILUPBiCGStab:  Solving for ILambda_21_0, Initial residual = 2.14802914275e-15, Final residual = 2.236708875e-63, No Iterations 25
DILUPBiCGStab:  Solving for ILambda_22_0, Initial residual = 2.52504988563e-15, Final residual = 5.22848704868e-61, No Iterations 24
DILUPBiCGStab:  Solving for ILambda_23_0, Initial residual = 2.07877301219e-15, Final residual = 6.2749695354e-65, No Iterations 25
DILUPBiCGStab:  Solving for ILambda_24_0, Initial residual = 2.13165532164e-15, Final residual = 1.32704667723e-61, No Iterations 25
DILUPBiCGStab:  Solving for ILambda_25_0, Initial residual = 2.19179214822e-15, Final residual = 9.0008480282e-61, No Iterations 28
DILUPBiCGStab:  Solving for ILambda_26_0, Initial residual = 1.9943912372e-15, Final residual = 2.71208537272e-61, No Iterations 31
DILUPBiCGStab:  Solving for ILambda_27_0, Initial residual = 2.22346701113e-15, Final residual = 3.05313318861e-61, No Iterations 32
DILUPBiCGStab:  Solving for ILambda_28_0, Initial residual = 2.15061591416e-15, Final residual = 3.6045858727e-61, No Iterations 31
DILUPBiCGStab:  Solving for ILambda_29_0, Initial residual = 2.01562043845e-15, Final residual = 5.048115531e-61, No Iterations 30
DILUPBiCGStab:  Solving for ILambda_30_0, Initial residual = 1.79956622024e-15, Final residual = 8.0618121186e-61, No Iterations 25
DILUPBiCGStab:  Solving for ILambda_31_0, Initial residual = 1.60025633312e-15, Final residual = 6.4499524375e-61, No Iterations 18
DILUPBiCGStab:  Solving for ILambda_32_0, Initial residual = 2.58162233816e-15, Final residual = 7.96977497819e-63, No Iterations 2
DILUPBiCGStab:  Solving for ILambda_33_0, Initial residual = 2.62501211431e-15, Final residual = 7.02954351718e-63, No Iterations 2
DILUPBiCGStab:  Solving for ILambda_34_0, Initial residual = 2.73359260893e-15, Final residual = 8.04148492826e-63, No Iterations 2
DILUPBiCGStab:  Solving for ILambda_35_0, Initial residual = 2.63941509435e-15, Final residual = 6.68936122525e-63, No Iterations 2
DILUPBiCGStab:  Solving for ILambda_36_0, Initial residual = 2.766575474e-15, Final residual = 6.99460125819e-63, No Iterations 2
DILUPBiCGStab:  Solving for ILambda_37_0, Initial residual = 2.85453250018e-15, Final residual = 8.25879932338e-63, No Iterations 2
DILUPBiCGStab:  Solving for ILambda_38_0, Initial residual = 2.86683071168e-15, Final residual = 7.01288787077e-63, No Iterations 2
DILUPBiCGStab:  Solving for ILambda_39_0, Initial residual = 2.64470284941e-15, Final residual = 1.2293681207e-62, No Iterations 2
DILUPBiCGStab:  Solving for ILambda_40_0, Initial residual = 4.2969243947e-15, Final residual = 8.61635571479e-61, No Iterations 24
DILUPBiCGStab:  Solving for ILambda_41_0, Initial residual = 4.96185721406e-15, Final residual = 2.23176858264e-61, No Iterations 37
DILUPBiCGStab:  Solving for ILambda_42_0, Initial residual = 5.29692059267e-15, Final residual = 2.21583636559e-61, No Iterations 44
DILUPBiCGStab:  Solving for ILambda_43_0, Initial residual = 5.62426648665e-15, Final residual = 3.83629640484e-61, No Iterations 47
DILUPBiCGStab:  Solving for ILambda_44_0, Initial residual = 5.60490887061e-15, Final residual = 4.50877602253e-61, No Iterations 47
DILUPBiCGStab:  Solving for ILambda_45_0, Initial residual = 5.8128241066e-15, Final residual = 7.51766930181e-61, No Iterations 46
DILUPBiCGStab:  Solving for ILambda_46_0, Initial residual = 5.63004372277e-15, Final residual = 5.28662779715e-61, No Iterations 41
DILUPBiCGStab:  Solving for ILambda_47_0, Initial residual = 5.27453635211e-15, Final residual = 1.55993441254e-61, No Iterations 33
DILUPBiCGStab:  Solving for ILambda_48_0, Initial residual = 4.94204138937e-15, Final residual = 1.90634868145e-61, No Iterations 25
DILUPBiCGStab:  Solving for ILambda_49_0, Initial residual = 5.29700081318e-15, Final residual = 2.26577176046e-61, No Iterations 25
DILUPBiCGStab:  Solving for ILambda_50_0, Initial residual = 5.61653540533e-15, Final residual = 7.09827394144e-61, No Iterations 26
DILUPBiCGStab:  Solving for ILambda_51_0, Initial residual = 5.60298493813e-15, Final residual = 1.64749638399e-61, No Iterations 26
DILUPBiCGStab:  Solving for ILambda_52_0, Initial residual = 5.64779013034e-15, Final residual = 3.38664110841e-61, No Iterations 26
DILUPBiCGStab:  Solving for ILambda_53_0, Initial residual = 5.52931803941e-15, Final residual = 3.37010788856e-61, No Iterations 26
DILUPBiCGStab:  Solving for ILambda_54_0, Initial residual = 5.21878581965e-15, Final residual = 8.94114918592e-61, No Iterations 26
DILUPBiCGStab:  Solving for ILambda_55_0, Initial residual = 4.98513339788e-15, Final residual = 4.1504122036e-61, No Iterations 25
DILUPBiCGStab:  Solving for ILambda_56_0, Initial residual = 5.01677562873e-15, Final residual = 8.86061759347e-61, No Iterations 32
DILUPBiCGStab:  Solving for ILambda_57_0, Initial residual = 5.42520134007e-15, Final residual = 4.19130156579e-61, No Iterations 41
DILUPBiCGStab:  Solving for ILambda_58_0, Initial residual = 5.83576173269e-15, Final residual = 8.08671277305e-61, No Iterations 45
DILUPBiCGStab:  Solving for ILambda_59_0, Initial residual = 5.60027783597e-15, Final residual = 3.31769499768e-61, No Iterations 47
DILUPBiCGStab:  Solving for ILambda_60_0, Initial residual = 5.4756804335e-15, Final residual = 1.57037178276e-61, No Iterations 48
DILUPBiCGStab:  Solving for ILambda_61_0, Initial residual = 5.28595349771e-15, Final residual = 6.03006828348e-61, No Iterations 43
DILUPBiCGStab:  Solving for ILambda_62_0, Initial residual = 5.24536464092e-15, Final residual = 7.92755810482e-61, No Iterations 36
DILUPBiCGStab:  Solving for ILambda_63_0, Initial residual = 4.20763217297e-15, Final residual = 6.28844981306e-61, No Iterations 24
DILUPBiCGStab:  Solving for ILambda_64_0, Initial residual = 4.65006322128e-15, Final residual = 1.90422098618e-62, No Iterations 26
DILUPBiCGStab:  Solving for ILambda_65_0, Initial residual = 5.10274753769e-15, Final residual = 1.50548247962e-61, No Iterations 26
DILUPBiCGStab:  Solving for ILambda_66_0, Initial residual = 5.53503001181e-15, Final residual = 6.16591980101e-62, No Iterations 27
DILUPBiCGStab:  Solving for ILambda_67_0, Initial residual = 5.4628465126e-15, Final residual = 4.73621671368e-61, No Iterations 26
DILUPBiCGStab:  Solving for ILambda_68_0, Initial residual = 5.23801698682e-15, Final residual = 5.89701363714e-61, No Iterations 27
DILUPBiCGStab:  Solving for ILambda_69_0, Initial residual = 5.54952137036e-15, Final residual = 2.94339321855e-61, No Iterations 26
DILUPBiCGStab:  Solving for ILambda_70_0, Initial residual = 5.10187870882e-15, Final residual = 2.54534694631e-61, No Iterations 26
DILUPBiCGStab:  Solving for ILambda_71_0, Initial residual = 4.94049952442e-15, Final residual = 6.37206638693e-61, No Iterations 26
DILUPBiCGStab:  Solving for ILambda_72_0, Initial residual = 4.73960698189e-15, Final residual = 9.93830607888e-62, No Iterations 33
DILUPBiCGStab:  Solving for ILambda_73_0, Initial residual = 5.16559418577e-15, Final residual = 3.91312725907e-61, No Iterations 40
DILUPBiCGStab:  Solving for ILambda_74_0, Initial residual = 5.65938675276e-15, Final residual = 2.94214774361e-61, No Iterations 45
DILUPBiCGStab:  Solving for ILambda_75_0, Initial residual = 5.43119204473e-15, Final residual = 5.97152459539e-61, No Iterations 47
DILUPBiCGStab:  Solving for ILambda_76_0, Initial residual = 5.74256454032e-15, Final residual = 2.60990699794e-61, No Iterations 47
DILUPBiCGStab:  Solving for ILambda_77_0, Initial residual = 5.29893834276e-15, Final residual = 1.63271842128e-61, No Iterations 44
DILUPBiCGStab:  Solving for ILambda_78_0, Initial residual = 4.89606960102e-15, Final residual = 2.72304633962e-61, No Iterations 37
DILUPBiCGStab:  Solving for ILambda_79_0, Initial residual = 4.30097349109e-15, Final residual = 6.93000264891e-61, No Iterations 24
DILUPBiCGStab:  Solving for ILambda_80_0, Initial residual = 2.2743941157e-15, Final residual = 1.11432392042e-62, No Iterations 2
DILUPBiCGStab:  Solving for ILambda_81_0, Initial residual = 2.49258845385e-15, Final residual = 6.58705571854e-63, No Iterations 2
DILUPBiCGStab:  Solving for ILambda_82_0, Initial residual = 2.67726693644e-15, Final residual = 7.92397162771e-63, No Iterations 2
DILUPBiCGStab:  Solving for ILambda_83_0, Initial residual = 2.67476922339e-15, Final residual = 6.97284605012e-63, No Iterations 2
DILUPBiCGStab:  Solving for ILambda_84_0, Initial residual = 2.83430877483e-15, Final residual = 7.21363116672e-63, No Iterations 2
DILUPBiCGStab:  Solving for ILambda_85_0, Initial residual = 2.47240415869e-15, Final residual = 6.92146040025e-63, No Iterations 2
DILUPBiCGStab:  Solving for ILambda_86_0, Initial residual = 2.36266930457e-15, Final residual = 5.63599556632e-63, No Iterations 2
DILUPBiCGStab:  Solving for ILambda_87_0, Initial residual = 2.20372392875e-15, Final residual = 5.75322478604e-63, No Iterations 2
DILUPBiCGStab:  Solving for ILambda_88_0, Initial residual = 4.27815959493e-15, Final residual = 7.98949897965e-62, No Iterations 25
DILUPBiCGStab:  Solving for ILambda_89_0, Initial residual = 4.98290761913e-15, Final residual = 5.43132190161e-61, No Iterations 37
DILUPBiCGStab:  Solving for ILambda_90_0, Initial residual = 5.45008193443e-15, Final residual = 1.10696711471e-61, No Iterations 44
DILUPBiCGStab:  Solving for ILambda_91_0, Initial residual = 5.41814329561e-15, Final residual = 6.78871361692e-61, No Iterations 47
DILUPBiCGStab:  Solving for ILambda_92_0, Initial residual = 5.76054073205e-15, Final residual = 5.94325282661e-61, No Iterations 47
DILUPBiCGStab:  Solving for ILambda_93_0, Initial residual = 5.66437809985e-15, Final residual = 8.54513087224e-61, No Iterations 45
DILUPBiCGStab:  Solving for ILambda_94_0, Initial residual = 5.22293553166e-15, Final residual = 1.22065878261e-61, No Iterations 42
DILUPBiCGStab:  Solving for ILambda_95_0, Initial residual = 4.79296041685e-15, Final residual = 6.55966507623e-61, No Iterations 33
DILUPBiCGStab:  Solving for ILambda_96_0, Initial residual = 2.51185225269e-15, Final residual = 6.51819782626e-62, No Iterations 25
DILUPBiCGStab:  Solving for ILambda_97_0, Initial residual = 2.19188052674e-15, Final residual = 4.88530013961e-62, No Iterations 26
DILUPBiCGStab:  Solving for ILambda_98_0, Initial residual = 2.24509935441e-15, Final residual = 1.94989967722e-62, No Iterations 26
DILUPBiCGStab:  Solving for ILambda_99_0, Initial residual = 2.27749960105e-15, Final residual = 3.42922705846e-62, No Iterations 26
DILUPBiCGStab:  Solving for ILambda_100_0, Initial residual = 2.31164974247e-15, Final residual = 3.04866978831e-63, No Iterations 26
DILUPBiCGStab:  Solving for ILambda_101_0, Initial residual = 2.30987537365e-15, Final residual = 1.71038018128e-61, No Iterations 25
DILUPBiCGStab:  Solving for ILambda_102_0, Initial residual = 2.23972729983e-15, Final residual = 5.77227622154e-61, No Iterations 25
DILUPBiCGStab:  Solving for ILambda_103_0, Initial residual = 2.30805273656e-15, Final residual = 7.60891494606e-64, No Iterations 24
DILUPBiCGStab:  Solving for ILambda_104_0, Initial residual = 2.37198780015e-15, Final residual = 4.35251845962e-61, No Iterations 25
DILUPBiCGStab:  Solving for ILambda_105_0, Initial residual = 2.09586541868e-15, Final residual = 2.54916467274e-61, No Iterations 28
DILUPBiCGStab:  Solving for ILambda_106_0, Initial residual = 2.24133374946e-15, Final residual = 1.54295890348e-61, No Iterations 31
DILUPBiCGStab:  Solving for ILambda_107_0, Initial residual = 2.16643431024e-15, Final residual = 5.40159063383e-61, No Iterations 32
DILUPBiCGStab:  Solving for ILambda_108_0, Initial residual = 2.22196933507e-15, Final residual = 1.38019558846e-61, No Iterations 32
DILUPBiCGStab:  Solving for ILambda_109_0, Initial residual = 2.05947386194e-15, Final residual = 9.79417912728e-62, No Iterations 30
DILUPBiCGStab:  Solving for ILambda_110_0, Initial residual = 2.03978856552e-15, Final residual = 9.93216048546e-62, No Iterations 26
DILUPBiCGStab:  Solving for ILambda_111_0, Initial residual = 1.82113737839e-15, Final residual = 5.64796865699e-61, No Iterations 18
DILUPBiCGStab:  Solving for ILambda_112_0, Initial residual = 8.70717453158e-16, Final residual = 3.83302058623e-63, No Iterations 2
DILUPBiCGStab:  Solving for ILambda_113_0, Initial residual = 9.99740580167e-16, Final residual = 3.22807065572e-63, No Iterations 2
DILUPBiCGStab:  Solving for ILambda_114_0, Initial residual = 1.09375901342e-15, Final residual = 2.57053256893e-63, No Iterations 2
DILUPBiCGStab:  Solving for ILambda_115_0, Initial residual = 1.0490591956e-15, Final residual = 2.27537384182e-63, No Iterations 2
DILUPBiCGStab:  Solving for ILambda_116_0, Initial residual = 1.05401655095e-15, Final residual = 2.24698053429e-63, No Iterations 2
DILUPBiCGStab:  Solving for ILambda_117_0, Initial residual = 9.91080164673e-16, Final residual = 2.24165337909e-63, No Iterations 2
DILUPBiCGStab:  Solving for ILambda_118_0, Initial residual = 9.36452719299e-16, Final residual = 2.0736830653e-63, No Iterations 2
DILUPBiCGStab:  Solving for ILambda_119_0, Initial residual = 8.50165367374e-16, Final residual = 4.08682728238e-63, No Iterations 2
DILUPBiCGStab:  Solving for ILambda_120_0, Initial residual = 1.86151820573e-15, Final residual = 2.49213245631e-61, No Iterations 18
DILUPBiCGStab:  Solving for ILambda_121_0, Initial residual = 1.96539288388e-15, Final residual = 9.75708078511e-61, No Iterations 25
DILUPBiCGStab:  Solving for ILambda_122_0, Initial residual = 1.9320170743e-15, Final residual = 6.4927124928e-61, No Iterations 29
DILUPBiCGStab:  Solving for ILambda_123_0, Initial residual = 2.01831530358e-15, Final residual = 5.63478950554e-61, No Iterations 31
DILUPBiCGStab:  Solving for ILambda_124_0, Initial residual = 2.07504547799e-15, Final residual = 2.10556301673e-61, No Iterations 32
DILUPBiCGStab:  Solving for ILambda_125_0, Initial residual = 2.27153065153e-15, Final residual = 2.18046823271e-61, No Iterations 31
DILUPBiCGStab:  Solving for ILambda_126_0, Initial residual = 2.04196811588e-15, Final residual = 9.6513654043e-63, No Iterations 29
DILUPBiCGStab:  Solving for ILambda_127_0, Initial residual = 2.04704716166e-15, Final residual = 7.03625093466e-62, No Iterations 25
min/max(T) = 1000, 1000
PIMPLE: iteration 2
Radiation solver iter: 0
DILUPBiCGStab:  Solving for ILambda_0_0, Initial residual = 7.48894456497e-16, Final residual = 1.95849100187e-63, No Iterations 2
DILUPBiCGStab:  Solving for ILambda_1_0, Initial residual = 8.17221252889e-16, Final residual = 3.38246720741e-63, No Iterations 2
DILUPBiCGStab:  Solving for ILambda_2_0, Initial residual = 8.80510473427e-16, Final residual = 2.10646611006e-63, No Iterations 2
DILUPBiCGStab:  Solving for ILambda_3_0, Initial residual = 8.86254397637e-16, Final residual = 1.93673385675e-63, No Iterations 2
DILUPBiCGStab:  Solving for ILambda_4_0, Initial residual = 9.26325900147e-16, Final residual = 1.98276316889e-63, No Iterations 2
DILUPBiCGStab:  Solving for ILambda_5_0, Initial residual = 9.24155867471e-16, Final residual = 2.1030072752e-63, No Iterations 2
DILUPBiCGStab:  Solving for ILambda_6_0, Initial residual = 8.42430886876e-16, Final residual = 1.84814879391e-63, No Iterations 2
DILUPBiCGStab:  Solving for ILambda_7_0, Initial residual = 7.57015762996e-16, Final residual = 1.71882195167e-63, No Iterations 2
DILUPBiCGStab:  Solving for ILambda_8_0, Initial residual = 8.02855663769e-16, Final residual = 1.00476799517e-62, No Iterations 19
DILUPBiCGStab:  Solving for ILambda_9_0, Initial residual = 8.94213903454e-16, Final residual = 5.07356689555e-61, No Iterations 25
DILUPBiCGStab:  Solving for ILambda_10_0, Initial residual = 9.71076025738e-16, Final residual = 2.55302368995e-61, No Iterations 29
DILUPBiCGStab:  Solving for ILambda_11_0, Initial residual = 9.9305168559e-16, Final residual = 7.05153531946e-61, No Iterations 31
DILUPBiCGStab:  Solving for ILambda_12_0, Initial residual = 1.04031516043e-15, Final residual = 2.04457950183e-61, No Iterations 32
DILUPBiCGStab:  Solving for ILambda_13_0, Initial residual = 1.03303005073e-15, Final residual = 4.24734049283e-61, No Iterations 31
DILUPBiCGStab:  Solving for ILambda_14_0, Initial residual = 9.42836368056e-16, Final residual = 3.39242106822e-61, No Iterations 28
DILUPBiCGStab:  Solving for ILambda_15_0, Initial residual = 8.28414732842e-16, Final residual = 3.46702649208e-65, No Iterations 26
DILUPBiCGStab:  Solving for ILambda_16_0, Initial residual = 8.29019785812e-16, Final residual = 1.74913731749e-61, No Iterations 23
DILUPBiCGStab:  Solving for ILambda_17_0, Initial residual = 9.52221487445e-16, Final residual = 3.8526173575e-62, No Iterations 24
DILUPBiCGStab:  Solving for ILambda_18_0, Initial residual = 1.03618720353e-15, Final residual = 1.62894079222e-64, No Iterations 25
DILUPBiCGStab:  Solving for ILambda_19_0, Initial residual = 1.05721789302e-15, Final residual = 1.2472359096e-61, No Iterations 25
DILUPBiCGStab:  Solving for ILambda_20_0, Initial residual = 1.00179028209e-15, Final residual = 2.18903297225e-61, No Iterations 24
DILUPBiCGStab:  Solving for ILambda_21_0, Initial residual = 9.80312261306e-16, Final residual = 2.31462589384e-61, No Iterations 24
DILUPBiCGStab:  Solving for ILambda_22_0, Initial residual = 9.27592432376e-16, Final residual = 1.45392817899e-61, No Iterations 24
DILUPBiCGStab:  Solving for ILambda_23_0, Initial residual = 8.25754539276e-16, Final residual = 1.05228198305e-61, No Iterations 23
DILUPBiCGStab:  Solving for ILambda_24_0, Initial residual = 8.45368453039e-16, Final residual = 8.26113659166e-61, No Iterations 24
DILUPBiCGStab:  Solving for ILambda_25_0, Initial residual = 9.61118485449e-16, Final residual = 1.24989028688e-61, No Iterations 28
DILUPBiCGStab:  Solving for ILambda_26_0, Initial residual = 1.00920999907e-15, Final residual = 6.54336988827e-62, No Iterations 31
DILUPBiCGStab:  Solving for ILambda_27_0, Initial residual = 1.05107490578e-15, Final residual = 2.88244838696e-61, No Iterations 32
DILUPBiCGStab:  Solving for ILambda_28_0, Initial residual = 1.0015169885e-15, Final residual = 3.7811671514e-61, No Iterations 31
DILUPBiCGStab:  Solving for ILambda_29_0, Initial residual = 9.66171017669e-16, Final residual = 4.47695010963e-61, No Iterations 29
DILUPBiCGStab:  Solving for ILambda_30_0, Initial residual = 8.87478100274e-16, Final residual = 5.26331162909e-61, No Iterations 25
DILUPBiCGStab:  Solving for ILambda_31_0, Initial residual = 7.99943251493e-16, Final residual = 2.19316736976e-61, No Iterations 18
DILUPBiCGStab:  Solving for ILambda_32_0, Initial residual = 2.48570308682e-15, Final residual = 7.6630865984e-63, No Iterations 2
DILUPBiCGStab:  Solving for ILambda_33_0, Initial residual = 2.53836037094e-15, Final residual = 6.81248464192e-63, No Iterations 2
DILUPBiCGStab:  Solving for ILambda_34_0, Initial residual = 2.56079627895e-15, Final residual = 7.58072104337e-63, No Iterations 2
DILUPBiCGStab:  Solving for ILambda_35_0, Initial residual = 2.51705434837e-15, Final residual = 6.42378414829e-63, No Iterations 2
DILUPBiCGStab:  Solving for ILambda_36_0, Initial residual = 2.65143593325e-15, Final residual = 6.79718932005e-63, No Iterations 2
DILUPBiCGStab:  Solving for ILambda_37_0, Initial residual = 2.6866377791e-15, Final residual = 8.03237150781e-63, No Iterations 2
DILUPBiCGStab:  Solving for ILambda_38_0, Initial residual = 2.7529937344e-15, Final residual = 6.74518212979e-63, No Iterations 2
DILUPBiCGStab:  Solving for ILambda_39_0, Initial residual = 2.53782738046e-15, Final residual = 6.73606600406e-63, No Iterations 2
DILUPBiCGStab:  Solving for ILambda_40_0, Initial residual = 2.68019158554e-15, Final residual = 7.81063014066e-61, No Iterations 24
DILUPBiCGStab:  Solving for ILambda_41_0, Initial residual = 2.82073383336e-15, Final residual = 1.70260581582e-61, No Iterations 37
DILUPBiCGStab:  Solving for ILambda_42_0, Initial residual = 2.8520361468e-15, Final residual = 7.08346685244e-61, No Iterations 43
DILUPBiCGStab:  Solving for ILambda_43_0, Initial residual = 2.82740709174e-15, Final residual = 4.28482913938e-61, No Iterations 47
DILUPBiCGStab:  Solving for ILambda_44_0, Initial residual = 2.95871174432e-15, Final residual = 5.47742915269e-61, No Iterations 47
DILUPBiCGStab:  Solving for ILambda_45_0, Initial residual = 3.01920072532e-15, Final residual = 1.35024190817e-61, No Iterations 46
DILUPBiCGStab:  Solving for ILambda_46_0, Initial residual = 3.08357564202e-15, Final residual = 3.44735759522e-61, No Iterations 41
DILUPBiCGStab:  Solving for ILambda_47_0, Initial residual = 2.85340533409e-15, Final residual = 4.82878244504e-61, No Iterations 32
DILUPBiCGStab:  Solving for ILambda_48_0, Initial residual = 2.83425710716e-15, Final residual = 7.34403260718e-62, No Iterations 25
DILUPBiCGStab:  Solving for ILambda_49_0, Initial residual = 3.06721745711e-15, Final residual = 8.15315664166e-62, No Iterations 25
DILUPBiCGStab:  Solving for ILambda_50_0, Initial residual = 3.01570093578e-15, Final residual = 5.78376718648e-61, No Iterations 26
DILUPBiCGStab:  Solving for ILambda_51_0, Initial residual = 2.95542678257e-15, Final residual = 1.60557441778e-61, No Iterations 25
DILUPBiCGStab:  Solving for ILambda_52_0, Initial residual = 2.8402926805e-15, Final residual = 5.09597653615e-61, No Iterations 25
DILUPBiCGStab:  Solving for ILambda_53_0, Initial residual = 2.88731005514e-15, Final residual = 8.45468483731e-61, No Iterations 26
DILUPBiCGStab:  Solving for ILambda_54_0, Initial residual = 2.83543866004e-15, Final residual = 4.15087472958e-61, No Iterations 25
DILUPBiCGStab:  Solving for ILambda_55_0, Initial residual = 2.73345936131e-15, Final residual = 1.64168268202e-61, No Iterations 24
DILUPBiCGStab:  Solving for ILambda_56_0, Initial residual = 2.82720586064e-15, Final residual = 2.11643339488e-63, No Iterations 34
DILUPBiCGStab:  Solving for ILambda_57_0, Initial residual = 3.07897859912e-15, Final residual = 6.77149205907e-61, No Iterations 40
DILUPBiCGStab:  Solving for ILambda_58_0, Initial residual = 3.01594703597e-15, Final residual = 5.62836422414e-62, No Iterations 46
DILUPBiCGStab:  Solving for ILambda_59_0, Initial residual = 2.964441392e-15, Final residual = 4.75960199676e-61, No Iterations 47
DILUPBiCGStab:  Solving for ILambda_60_0, Initial residual = 2.81553037781e-15, Final residual = 9.34725203342e-61, No Iterations 46
DILUPBiCGStab:  Solving for ILambda_61_0, Initial residual = 2.85705740662e-15, Final residual = 4.18982997471e-61, No Iterations 43
DILUPBiCGStab:  Solving for ILambda_62_0, Initial residual = 2.85270782358e-15, Final residual = 2.52368818643e-61, No Iterations 37
DILUPBiCGStab:  Solving for ILambda_63_0, Initial residual = 2.67782712011e-15, Final residual = 1.34049992757e-61, No Iterations 25
DILUPBiCGStab:  Solving for ILambda_64_0, Initial residual = 2.30713224024e-15, Final residual = 2.88472110298e-62, No Iterations 25
DILUPBiCGStab:  Solving for ILambda_65_0, Initial residual = 2.45276373137e-15, Final residual = 2.82730232805e-61, No Iterations 26
DILUPBiCGStab:  Solving for ILambda_66_0, Initial residual = 2.58759128788e-15, Final residual = 4.61998862394e-61, No Iterations 26
DILUPBiCGStab:  Solving for ILambda_67_0, Initial residual = 2.97490404977e-15, Final residual = 5.89283596253e-61, No Iterations 26
DILUPBiCGStab:  Solving for ILambda_68_0, Initial residual = 2.7857835266e-15, Final residual = 5.37271856372e-61, No Iterations 25
DILUPBiCGStab:  Solving for ILambda_69_0, Initial residual = 2.85230400193e-15, Final residual = 4.54801522938e-61, No Iterations 26
DILUPBiCGStab:  Solving for ILambda_70_0, Initial residual = 2.68670984179e-15, Final residual = 7.46503390075e-61, No Iterations 25
DILUPBiCGStab:  Solving for ILambda_71_0, Initial residual = 2.35456431411e-15, Final residual = 2.57087599982e-61, No Iterations 26
DILUPBiCGStab:  Solving for ILambda_72_0, Initial residual = 2.29930190303e-15, Final residual = 6.90670117597e-61, No Iterations 33
DILUPBiCGStab:  Solving for ILambda_73_0, Initial residual = 2.46023647547e-15, Final residual = 9.58892751678e-61, No Iterations 41
DILUPBiCGStab:  Solving for ILambda_74_0, Initial residual = 2.55884379361e-15, Final residual = 3.64603072502e-61, No Iterations 45
DILUPBiCGStab:  Solving for ILambda_75_0, Initial residual = 3.00730905526e-15, Final residual = 6.30438882815e-61, No Iterations 47
DILUPBiCGStab:  Solving for ILambda_76_0, Initial residual = 2.81066819955e-15, Final residual = 9.11254019814e-61, No Iterations 47
DILUPBiCGStab:  Solving for ILambda_77_0, Initial residual = 2.82216148665e-15, Final residual = 8.5244427942e-61, No Iterations 43
DILUPBiCGStab:  Solving for ILambda_78_0, Initial residual = 2.6494793689e-15, Final residual = 3.82921454013e-61, No Iterations 37
DILUPBiCGStab:  Solving for ILambda_79_0, Initial residual = 2.33278512651e-15, Final residual = 9.57938264879e-61, No Iterations 24
DILUPBiCGStab:  Solving for ILambda_80_0, Initial residual = 2.13459560714e-15, Final residual = 6.16108772396e-63, No Iterations 2
DILUPBiCGStab:  Solving for ILambda_81_0, Initial residual = 2.37558616574e-15, Final residual = 6.35633295718e-63, No Iterations 2
DILUPBiCGStab:  Solving for ILambda_82_0, Initial residual = 2.52050654967e-15, Final residual = 8.00300315295e-63, No Iterations 2
DILUPBiCGStab:  Solving for ILambda_83_0, Initial residual = 2.54450471804e-15, Final residual = 6.77431410587e-63, No Iterations 2
DILUPBiCGStab:  Solving for ILambda_84_0, Initial residual = 2.72220537627e-15, Final residual = 6.9449238231e-63, No Iterations 2
DILUPBiCGStab:  Solving for ILambda_85_0, Initial residual = 2.36270737532e-15, Final residual = 6.96789527797e-63, No Iterations 2
DILUPBiCGStab:  Solving for ILambda_86_0, Initial residual = 2.26484651579e-15, Final residual = 5.41630718725e-63, No Iterations 2
DILUPBiCGStab:  Solving for ILambda_87_0, Initial residual = 2.09375521147e-15, Final residual = 5.47787817305e-63, No Iterations 2
DILUPBiCGStab:  Solving for ILambda_88_0, Initial residual = 2.35144115304e-15, Final residual = 4.71177455077e-61, No Iterations 24
DILUPBiCGStab:  Solving for ILambda_89_0, Initial residual = 2.6635084398e-15, Final residual = 7.22885339008e-61, No Iterations 36
DILUPBiCGStab:  Solving for ILambda_90_0, Initial residual = 2.84977773582e-15, Final residual = 4.83310352693e-61, No Iterations 44
DILUPBiCGStab:  Solving for ILambda_91_0, Initial residual = 2.76697249773e-15, Final residual = 4.81612564587e-61, No Iterations 47
DILUPBiCGStab:  Solving for ILambda_92_0, Initial residual = 2.99204812371e-15, Final residual = 4.89924510773e-61, No Iterations 47
DILUPBiCGStab:  Solving for ILambda_93_0, Initial residual = 2.56699501284e-15, Final residual = 3.53328539533e-61, No Iterations 45
DILUPBiCGStab:  Solving for ILambda_94_0, Initial residual = 2.48279339407e-15, Final residual = 2.13694808505e-61, No Iterations 41
DILUPBiCGStab:  Solving for ILambda_95_0, Initial residual = 2.31606255015e-15, Final residual = 4.05635234347e-61, No Iterations 33
DILUPBiCGStab:  Solving for ILambda_96_0, Initial residual = 9.14194248172e-16, Final residual = 2.1673832281e-61, No Iterations 23
DILUPBiCGStab:  Solving for ILambda_97_0, Initial residual = 1.02467692056e-15, Final residual = 9.13478143578e-62, No Iterations 25
DILUPBiCGStab:  Solving for ILambda_98_0, Initial residual = 1.09109270134e-15, Final residual = 9.8545142549e-62, No Iterations 25
DILUPBiCGStab:  Solving for ILambda_99_0, Initial residual = 1.15898440346e-15, Final residual = 3.23048177507e-61, No Iterations 24
DILUPBiCGStab:  Solving for ILambda_100_0, Initial residual = 1.14550531892e-15, Final residual = 1.52573596201e-65, No Iterations 26
DILUPBiCGStab:  Solving for ILambda_101_0, Initial residual = 1.13892995675e-15, Final residual = 4.11623691308e-61, No Iterations 24
DILUPBiCGStab:  Solving for ILambda_102_0, Initial residual = 1.05713835234e-15, Final residual = 4.06651305847e-63, No Iterations 25
DILUPBiCGStab:  Solving for ILambda_103_0, Initial residual = 9.06889423265e-16, Final residual = 2.74828723233e-62, No Iterations 24
DILUPBiCGStab:  Solving for ILambda_104_0, Initial residual = 9.05811205275e-16, Final residual = 2.64554511998e-61, No Iterations 25
DILUPBiCGStab:  Solving for ILambda_105_0, Initial residual = 1.02617731596e-15, Final residual = 7.51126067885e-61, No Iterations 28
DILUPBiCGStab:  Solving for ILambda_106_0, Initial residual = 1.08126976834e-15, Final residual = 3.79807809646e-61, No Iterations 30
DILUPBiCGStab:  Solving for ILambda_107_0, Initial residual = 1.13042182425e-15, Final residual = 7.6392888788e-61, No Iterations 32
DILUPBiCGStab:  Solving for ILambda_108_0, Initial residual = 1.14956733184e-15, Final residual = 4.5158737488e-61, No Iterations 31
DILUPBiCGStab:  Solving for ILambda_109_0, Initial residual = 1.13287330853e-15, Final residual = 9.83039259603e-61, No Iterations 29
DILUPBiCGStab:  Solving for ILambda_110_0, Initial residual = 1.04518685659e-15, Final residual = 8.09105573895e-61, No Iterations 26
DILUPBiCGStab:  Solving for ILambda_111_0, Initial residual = 9.0362145739e-16, Final residual = 5.30257225403e-61, No Iterations 18
DILUPBiCGStab:  Solving for ILambda_112_0, Initial residual = 7.97839842626e-16, Final residual = 1.9897807099e-63, No Iterations 2
DILUPBiCGStab:  Solving for ILambda_113_0, Initial residual = 9.28603346719e-16, Final residual = 2.19235745452e-63, No Iterations 2
DILUPBiCGStab:  Solving for ILambda_114_0, Initial residual = 1.03734292269e-15, Final residual = 2.48380272602e-63, No Iterations 2
DILUPBiCGStab:  Solving for ILambda_115_0, Initial residual = 9.90526779147e-16, Final residual = 2.20599347894e-63, No Iterations 2
DILUPBiCGStab:  Solving for ILambda_116_0, Initial residual = 1.00658243758e-15, Final residual = 4.36959112794e-63, No Iterations 2
DILUPBiCGStab:  Solving for ILambda_117_0, Initial residual = 9.41310818767e-16, Final residual = 2.15975530676e-63, No Iterations 2
DILUPBiCGStab:  Solving for ILambda_118_0, Initial residual = 8.85694893597e-16, Final residual = 1.98424268222e-63, No Iterations 2
DILUPBiCGStab:  Solving for ILambda_119_0, Initial residual = 7.82610183477e-16, Final residual = 1.87780264173e-63, No Iterations 2
DILUPBiCGStab:  Solving for ILambda_120_0, Initial residual = 9.0027055167e-16, Final residual = 8.5386336734e-61, No Iterations 18
DILUPBiCGStab:  Solving for ILambda_121_0, Initial residual = 1.04924886951e-15, Final residual = 1.27084837913e-61, No Iterations 26
DILUPBiCGStab:  Solving for ILambda_122_0, Initial residual = 1.15818287823e-15, Final residual = 6.37467469566e-61, No Iterations 29
DILUPBiCGStab:  Solving for ILambda_123_0, Initial residual = 1.11302825094e-15, Final residual = 1.68401598147e-61, No Iterations 32
DILUPBiCGStab:  Solving for ILambda_124_0, Initial residual = 1.13516775098e-15, Final residual = 4.43901085736e-61, No Iterations 32
DILUPBiCGStab:  Solving for ILambda_125_0, Initial residual = 1.08082787572e-15, Final residual = 7.78761759627e-61, No Iterations 31
DILUPBiCGStab:  Solving for ILambda_126_0, Initial residual = 1.01232500212e-15, Final residual = 2.17962552856e-61, No Iterations 28
DILUPBiCGStab:  Solving for ILambda_127_0, Initial residual = 8.78432218448e-16, Final residual = 2.80472300875e-61, No Iterations 25
min/max(T) = 1000, 1000
PIMPLE: iteration 3
Radiation solver iter: 0
DILUPBiCGStab:  Solving for ILambda_0_0, Initial residual = 7.49543698729e-16, Final residual = 1.9704742763e-63, No Iterations 2
DILUPBiCGStab:  Solving for ILambda_1_0, Initial residual = 8.17298754056e-16, Final residual = 1.95013556556e-63, No Iterations 2
DILUPBiCGStab:  Solving for ILambda_2_0, Initial residual = 8.82919128117e-16, Final residual = 2.12633041463e-63, No Iterations 2
DILUPBiCGStab:  Solving for ILambda_3_0, Initial residual = 8.8681866052e-16, Final residual = 1.93884148786e-63, No Iterations 2
DILUPBiCGStab:  Solving for ILambda_4_0, Initial residual = 9.20889941101e-16, Final residual = 1.97958894493e-63, No Iterations 2
DILUPBiCGStab:  Solving for ILambda_5_0, Initial residual = 9.23823428255e-16, Final residual = 2.09173112003e-63, No Iterations 2
DILUPBiCGStab:  Solving for ILambda_6_0, Initial residual = 8.40336995698e-16, Final residual = 1.84668104829e-63, No Iterations 2
DILUPBiCGStab:  Solving for ILambda_7_0, Initial residual = 7.55653374061e-16, Final residual = 3.2912832819e-63, No Iterations 2
DILUPBiCGStab:  Solving for ILambda_8_0, Initial residual = 7.58231307616e-16, Final residual = 1.11140517777e-61, No Iterations 18
DILUPBiCGStab:  Solving for ILambda_9_0, Initial residual = 8.26018995013e-16, Final residual = 4.24852782795e-62, No Iterations 26
DILUPBiCGStab:  Solving for ILambda_10_0, Initial residual = 8.96628676658e-16, Final residual = 6.44457799034e-62, No Iterations 30
DILUPBiCGStab:  Solving for ILambda_11_0, Initial residual = 9.03377396699e-16, Final residual = 3.66734744631e-61, No Iterations 31
DILUPBiCGStab:  Solving for ILambda_12_0, Initial residual = 9.40525609577e-16, Final residual = 6.18668555124e-61, No Iterations 31
DILUPBiCGStab:  Solving for ILambda_13_0, Initial residual = 9.36211377947e-16, Final residual = 7.08961335596e-62, No Iterations 31
DILUPBiCGStab:  Solving for ILambda_14_0, Initial residual = 8.51181720398e-16, Final residual = 1.92557818743e-61, No Iterations 28
DILUPBiCGStab:  Solving for ILambda_15_0, Initial residual = 7.59751418224e-16, Final residual = 3.40767039631e-61, No Iterations 25
DILUPBiCGStab:  Solving for ILambda_16_0, Initial residual = 7.61292603712e-16, Final residual = 4.2029379406e-62, No Iterations 23
DILUPBiCGStab:  Solving for ILambda_17_0, Initial residual = 8.53072340972e-16, Final residual = 1.7003121827e-63, No Iterations 24
DILUPBiCGStab:  Solving for ILambda_18_0, Initial residual = 9.33315961542e-16, Final residual = 1.10541054737e-61, No Iterations 24
DILUPBiCGStab:  Solving for ILambda_19_0, Initial residual = 9.50364178776e-16, Final residual = 6.02189374328e-64, No Iterations 25
DILUPBiCGStab:  Solving for ILambda_20_0, Initial residual = 9.03631654914e-16, Final residual = 1.35751496447e-62, No Iterations 25
DILUPBiCGStab:  Solving for ILambda_21_0, Initial residual = 9.0072944016e-16, Final residual = 8.78812184493e-65, No Iterations 25
DILUPBiCGStab:  Solving for ILambda_22_0, Initial residual = 8.29059896065e-16, Final residual = 3.66924265056e-62, No Iterations 24
DILUPBiCGStab:  Solving for ILambda_23_0, Initial residual = 7.60613448748e-16, Final residual = 2.22163741357e-63, No Iterations 23
DILUPBiCGStab:  Solving for ILambda_24_0, Initial residual = 7.71270539045e-16, Final residual = 1.62941647034e-61, No Iterations 25
DILUPBiCGStab:  Solving for ILambda_25_0, Initial residual = 8.55213820586e-16, Final residual = 2.88116545238e-61, No Iterations 28
DILUPBiCGStab:  Solving for ILambda_26_0, Initial residual = 9.23219734954e-16, Final residual = 3.285807358e-61, No Iterations 30
DILUPBiCGStab:  Solving for ILambda_27_0, Initial residual = 9.49496029739e-16, Final residual = 1.29077568362e-61, No Iterations 32
DILUPBiCGStab:  Solving for ILambda_28_0, Initial residual = 9.06903699797e-16, Final residual = 2.32456174489e-61, No Iterations 31
DILUPBiCGStab:  Solving for ILambda_29_0, Initial residual = 8.97948915836e-16, Final residual = 4.45850186615e-62, No Iterations 30
DILUPBiCGStab:  Solving for ILambda_30_0, Initial residual = 8.19820261323e-16, Final residual = 5.45097599069e-61, No Iterations 25
DILUPBiCGStab:  Solving for ILambda_31_0, Initial residual = 7.54474540521e-16, Final residual = 1.04931605825e-62, No Iterations 19
DILUPBiCGStab:  Solving for ILambda_32_0, Initial residual = 2.46593485056e-15, Final residual = 7.68395605974e-63, No Iterations 2
DILUPBiCGStab:  Solving for ILambda_33_0, Initial residual = 2.52402537439e-15, Final residual = 6.89251322345e-63, No Iterations 2
DILUPBiCGStab:  Solving for ILambda_34_0, Initial residual = 2.51943512983e-15, Final residual = 7.69686688602e-63, No Iterations 2
DILUPBiCGStab:  Solving for ILambda_35_0, Initial residual = 2.49173458115e-15, Final residual = 6.40501031016e-63, No Iterations 2
DILUPBiCGStab:  Solving for ILambda_36_0, Initial residual = 2.62140898988e-15, Final residual = 6.88285162972e-63, No Iterations 2
DILUPBiCGStab:  Solving for ILambda_37_0, Initial residual = 2.6531151252e-15, Final residual = 8.02235331132e-63, No Iterations 2
DILUPBiCGStab:  Solving for ILambda_38_0, Initial residual = 2.7315503852e-15, Final residual = 6.82108947429e-63, No Iterations 2
DILUPBiCGStab:  Solving for ILambda_39_0, Initial residual = 2.50929335431e-15, Final residual = 6.67866347307e-63, No Iterations 2
DILUPBiCGStab:  Solving for ILambda_40_0, Initial residual = 2.50485947176e-15, Final residual = 9.86936412787e-62, No Iterations 25
DILUPBiCGStab:  Solving for ILambda_41_0, Initial residual = 2.57159749422e-15, Final residual = 6.6048364366e-61, No Iterations 37
DILUPBiCGStab:  Solving for ILambda_42_0, Initial residual = 2.57166955671e-15, Final residual = 8.48850539484e-61, No Iterations 43
DILUPBiCGStab:  Solving for ILambda_43_0, Initial residual = 2.54469371192e-15, Final residual = 3.80501653236e-61, No Iterations 47
DILUPBiCGStab:  Solving for ILambda_44_0, Initial residual = 2.67382289315e-15, Final residual = 1.08518048292e-61, No Iterations 48
DILUPBiCGStab:  Solving for ILambda_45_0, Initial residual = 2.70274986381e-15, Final residual = 2.12004857917e-61, No Iterations 46
DILUPBiCGStab:  Solving for ILambda_46_0, Initial residual = 2.77921904158e-15, Final residual = 2.41943314235e-61, No Iterations 40
DILUPBiCGStab:  Solving for ILambda_47_0, Initial residual = 2.5950409174e-15, Final residual = 3.28247428651e-61, No Iterations 33
DILUPBiCGStab:  Solving for ILambda_48_0, Initial residual = 2.59259759114e-15, Final residual = 3.23680723746e-61, No Iterations 24
DILUPBiCGStab:  Solving for ILambda_49_0, Initial residual = 2.78969121681e-15, Final residual = 3.05892331309e-61, No Iterations 25
DILUPBiCGStab:  Solving for ILambda_50_0, Initial residual = 2.69516698647e-15, Final residual = 1.50309235074e-61, No Iterations 25
DILUPBiCGStab:  Solving for ILambda_51_0, Initial residual = 2.68242008401e-15, Final residual = 3.6551101382e-61, No Iterations 26
DILUPBiCGStab:  Solving for ILambda_52_0, Initial residual = 2.55802119331e-15, Final residual = 2.36325405555e-61, No Iterations 26
DILUPBiCGStab:  Solving for ILambda_53_0, Initial residual = 2.59173692028e-15, Final residual = 1.37795166555e-61, No Iterations 26
DILUPBiCGStab:  Solving for ILambda_54_0, Initial residual = 2.57264443981e-15, Final residual = 1.64107706662e-61, No Iterations 25
DILUPBiCGStab:  Solving for ILambda_55_0, Initial residual = 2.5159217436e-15, Final residual = 9.5619783819e-62, No Iterations 24
DILUPBiCGStab:  Solving for ILambda_56_0, Initial residual = 2.57878606738e-15, Final residual = 9.77785456912e-61, No Iterations 33
DILUPBiCGStab:  Solving for ILambda_57_0, Initial residual = 2.7780687611e-15, Final residual = 7.49643432114e-61, No Iterations 41
DILUPBiCGStab:  Solving for ILambda_58_0, Initial residual = 2.69035103676e-15, Final residual = 2.69272457456e-61, No Iterations 46
DILUPBiCGStab:  Solving for ILambda_59_0, Initial residual = 2.69398407392e-15, Final residual = 8.93502520286e-61, No Iterations 47
DILUPBiCGStab:  Solving for ILambda_60_0, Initial residual = 2.5448514336e-15, Final residual = 3.81065641692e-61, No Iterations 47
DILUPBiCGStab:  Solving for ILambda_61_0, Initial residual = 2.57270698461e-15, Final residual = 8.07405407049e-61, No Iterations 43
DILUPBiCGStab:  Solving for ILambda_62_0, Initial residual = 2.59778065164e-15, Final residual = 3.87646396798e-61, No Iterations 37
DILUPBiCGStab:  Solving for ILambda_63_0, Initial residual = 2.50530680306e-15, Final residual = 7.59882919749e-61, No Iterations 24
DILUPBiCGStab:  Solving for ILambda_64_0, Initial residual = 2.10677268818e-15, Final residual = 1.78533217497e-62, No Iterations 26
DILUPBiCGStab:  Solving for ILambda_65_0, Initial residual = 2.28390772386e-15, Final residual = 2.18618207995e-61, No Iterations 26
[...]
DILUPBiCGStab:  Solving for ILambda_108_0, Initial residual = 9.69426746516e-16, Final residual = 4.59970044499e-61, No Iterations 31
DILUPBiCGStab:  Solving for ILambda_109_0, Initial residual = 9.78981824604e-16, Final residual = 5.30367242831e-61, No Iterations 29
DILUPBiCGStab:  Solving for ILambda_110_0, Initial residual = 9.01492894637e-16, Final residual = 3.12294595621e-61, No Iterations 26
DILUPBiCGStab:  Solving for ILambda_111_0, Initial residual = 7.65246522897e-16, Final residual = 1.66505959611e-61, No Iterations 18
DILUPBiCGStab:  Solving for ILambda_112_0, Initial residual = 7.7347320379e-16, Final residual = 5.83167273537e-63, No Iterations 2
DILUPBiCGStab:  Solving for ILambda_113_0, Initial residual = 9.11681578758e-16, Final residual = 4.3604901598e-63, No Iterations 2
DILUPBiCGStab:  Solving for ILambda_114_0, Initial residual = 1.02778036642e-15, Final residual = 2.46759073162e-63, No Iterations 2
DILUPBiCGStab:  Solving for ILambda_115_0, Initial residual = 9.82600585235e-16, Final residual = 3.13480071652e-63, No Iterations 2
DILUPBiCGStab:  Solving for ILambda_116_0, Initial residual = 1.00178008456e-15, Final residual = 4.4322724619e-63, No Iterations 2
DILUPBiCGStab:  Solving for ILambda_117_0, Initial residual = 9.4098245856e-16, Final residual = 2.21613289723e-63, No Iterations 2
DILUPBiCGStab:  Solving for ILambda_118_0, Initial residual = 8.78743582785e-16, Final residual = 1.97902316237e-63, No Iterations 2
DILUPBiCGStab:  Solving for ILambda_119_0, Initial residual = 7.56439942921e-16, Final residual = 5.47507892111e-63, No Iterations 2
DILUPBiCGStab:  Solving for ILambda_120_0, Initial residual = 7.67388002511e-16, Final residual = 1.25692352009e-62, No Iterations 19
DILUPBiCGStab:  Solving for ILambda_121_0, Initial residual = 9.0399400686e-16, Final residual = 9.71294825185e-61, No Iterations 25
DILUPBiCGStab:  Solving for ILambda_122_0, Initial residual = 1.02135932675e-15, Final residual = 3.37432595434e-61, No Iterations 29
DILUPBiCGStab:  Solving for ILambda_123_0, Initial residual = 9.70619176752e-16, Final residual = 2.41030861877e-61, No Iterations 31
DILUPBiCGStab:  Solving for ILambda_124_0, Initial residual = 9.82426547527e-16, Final residual = 5.46482765832e-61, No Iterations 31
DILUPBiCGStab:  Solving for ILambda_125_0, Initial residual = 9.08383700151e-16, Final residual = 3.18774232269e-61, No Iterations 31
DILUPBiCGStab:  Solving for ILambda_126_0, Initial residual = 8.65587419771e-16, Final residual = 4.85560983949e-61, No Iterations 28
DILUPBiCGStab:  Solving for ILambda_127_0, Initial residual = 7.48413133459e-16, Final residual = 4.6166524889e-61, No Iterations 25
min/max(T) = 1000, 1000
PIMPLE: iteration 10
Radiation solver iter: 0
DILUPBiCGStab:  Solving for ILambda_0_0, Initial residual = 7.45805287174e-16, Final residual = 1.95456491045e-63, No Iterations 2
DILUPBiCGStab:  Solving for ILambda_1_0, Initial residual = 8.12561665183e-16, Final residual = 1.95936878383e-63, No Iterations 2
DILUPBiCGStab:  Solving for ILambda_2_0, Initial residual = 8.84530336589e-16, Final residual = 2.15951113719e-63, No Iterations 2
DILUPBiCGStab:  Solving for ILambda_3_0, Initial residual = 8.8454189378e-16, Final residual = 1.96178890196e-63, No Iterations 2
DILUPBiCGStab:  Solving for ILambda_4_0, Initial residual = 9.17547873233e-16, Final residual = 3.52001602946e-63, No Iterations 2
DILUPBiCGStab:  Solving for ILambda_5_0, Initial residual = 9.23348223731e-16, Final residual = 2.13023261441e-63, No Iterations 2
DILUPBiCGStab:  Solving for ILambda_6_0, Initial residual = 8.36536039341e-16, Final residual = 1.83318192018e-63, No Iterations 2
DILUPBiCGStab:  Solving for ILambda_7_0, Initial residual = 7.50554613074e-16, Final residual = 1.70593119185e-63, No Iterations 2
DILUPBiCGStab:  Solving for ILambda_8_0, Initial residual = 7.52073364013e-16, Final residual = 2.63589476872e-61, No Iterations 18
DILUPBiCGStab:  Solving for ILambda_9_0, Initial residual = 8.16474114446e-16, Final residual = 5.94187684782e-61, No Iterations 25
DILUPBiCGStab:  Solving for ILambda_10_0, Initial residual = 8.76018804916e-16, Final residual = 4.71668880525e-61, No Iterations 29
DILUPBiCGStab:  Solving for ILambda_11_0, Initial residual = 8.74540844064e-16, Final residual = 7.17822679724e-61, No Iterations 31
DILUPBiCGStab:  Solving for ILambda_12_0, Initial residual = 9.08715459535e-16, Final residual = 1.79329242388e-61, No Iterations 32
DILUPBiCGStab:  Solving for ILambda_13_0, Initial residual = 9.12304307434e-16, Final residual = 4.96120287388e-61, No Iterations 31
DILUPBiCGStab:  Solving for ILambda_14_0, Initial residual = 8.27665554894e-16, Final residual = 9.26718057421e-61, No Iterations 28
DILUPBiCGStab:  Solving for ILambda_15_0, Initial residual = 7.43423825876e-16, Final residual = 5.01174127951e-63, No Iterations 26
DILUPBiCGStab:  Solving for ILambda_16_0, Initial residual = 7.48123523836e-16, Final residual = 1.28706278939e-61, No Iterations 23
DILUPBiCGStab:  Solving for ILambda_17_0, Initial residual = 8.2826992803e-16, Final residual = 7.57277129635e-63, No Iterations 25
DILUPBiCGStab:  Solving for ILambda_18_0, Initial residual = 9.02493611462e-16, Final residual = 3.04380032657e-62, No Iterations 25
DILUPBiCGStab:  Solving for ILambda_19_0, Initial residual = 9.10066291279e-16, Final residual = 5.56773293217e-61, No Iterations 24
DILUPBiCGStab:  Solving for ILambda_20_0, Initial residual = 8.73895680841e-16, Final residual = 5.36520944463e-62, No Iterations 25
DILUPBiCGStab:  Solving for ILambda_21_0, Initial residual = 8.80239219343e-16, Final residual = 8.87150015648e-61, No Iterations 24
DILUPBiCGStab:  Solving for ILambda_22_0, Initial residual = 8.09763465153e-16, Final residual = 2.05399816048e-63, No Iterations 24
DILUPBiCGStab:  Solving for ILambda_23_0, Initial residual = 7.47266252155e-16, Final residual = 9.22122221538e-62, No Iterations 23
DILUPBiCGStab:  Solving for ILambda_24_0, Initial residual = 7.56108183541e-16, Final residual = 7.46194414883e-62, No Iterations 25
DILUPBiCGStab:  Solving for ILambda_25_0, Initial residual = 8.30575927665e-16, Final residual = 5.99737510641e-61, No Iterations 28
DILUPBiCGStab:  Solving for ILambda_26_0, Initial residual = 9.01298461886e-16, Final residual = 8.96531126772e-62, No Iterations 31
DILUPBiCGStab:  Solving for ILambda_27_0, Initial residual = 9.15635497945e-16, Final residual = 2.09404470887e-61, No Iterations 32
DILUPBiCGStab:  Solving for ILambda_28_0, Initial residual = 8.75308377551e-16, Final residual = 3.97459154975e-61, No Iterations 31
DILUPBiCGStab:  Solving for ILambda_29_0, Initial residual = 8.8289261456e-16, Final residual = 3.9094049947e-61, No Iterations 29
DILUPBiCGStab:  Solving for ILambda_30_0, Initial residual = 8.0933516923e-16, Final residual = 3.10226136111e-61, No Iterations 25
DILUPBiCGStab:  Solving for ILambda_31_0, Initial residual = 7.45917459916e-16, Final residual = 3.10248506249e-61, No Iterations 18
DILUPBiCGStab:  Solving for ILambda_32_0, Initial residual = 2.47582916621e-15, Final residual = 7.8287706293e-63, No Iterations 2
DILUPBiCGStab:  Solving for ILambda_33_0, Initial residual = 2.53253554639e-15, Final residual = 7.11704504448e-63, No Iterations 2
DILUPBiCGStab:  Solving for ILambda_34_0, Initial residual = 2.53409508742e-15, Final residual = 8.50741741555e-63, No Iterations 2
DILUPBiCGStab:  Solving for ILambda_35_0, Initial residual = 2.5097814757e-15, Final residual = 6.84765440913e-63, No Iterations 2
DILUPBiCGStab:  Solving for ILambda_36_0, Initial residual = 2.64465254163e-15, Final residual = 7.22401396632e-63, No Iterations 2
DILUPBiCGStab:  Solving for ILambda_37_0, Initial residual = 2.6850632817e-15, Final residual = 8.99389072912e-63, No Iterations 2
DILUPBiCGStab:  Solving for ILambda_38_0, Initial residual = 2.76222996997e-15, Final residual = 7.06319886173e-63, No Iterations 2
DILUPBiCGStab:  Solving for ILambda_39_0, Initial residual = 2.50847891223e-15, Final residual = 6.73952362171e-63, No Iterations 2
DILUPBiCGStab:  Solving for ILambda_40_0, Initial residual = 2.47726905631e-15, Final residual = 6.79526777722e-61, No Iterations 24
DILUPBiCGStab:  Solving for ILambda_41_0, Initial residual = 2.52074313198e-15, Final residual = 3.04497100227e-61, No Iterations 37
DILUPBiCGStab:  Solving for ILambda_42_0, Initial residual = 2.50429792822e-15, Final residual = 7.54670238458e-61, No Iterations 44
DILUPBiCGStab:  Solving for ILambda_43_0, Initial residual = 2.47604127467e-15, Final residual = 9.18859628512e-61, No Iterations 47
DILUPBiCGStab:  Solving for ILambda_44_0, Initial residual = 2.59608514365e-15, Final residual = 6.70086447782e-61, No Iterations 47
DILUPBiCGStab:  Solving for ILambda_45_0, Initial residual = 2.61990655498e-15, Final residual = 1.31240682212e-61, No Iterations 46
DILUPBiCGStab:  Solving for ILambda_46_0, Initial residual = 2.69119403191e-15, Final residual = 5.03051500915e-61, No Iterations 41
DILUPBiCGStab:  Solving for ILambda_47_0, Initial residual = 2.53492856488e-15, Final residual = 1.57582656384e-64, No Iterations 34
DILUPBiCGStab:  Solving for ILambda_48_0, Initial residual = 2.53803812925e-15, Final residual = 2.80875185158e-61, No Iterations 24
DILUPBiCGStab:  Solving for ILambda_49_0, Initial residual = 2.74161737889e-15, Final residual = 1.66172338139e-61, No Iterations 25
DILUPBiCGStab:  Solving for ILambda_50_0, Initial residual = 2.63375478982e-15, Final residual = 7.4227762999e-62, No Iterations 26
DILUPBiCGStab:  Solving for ILambda_51_0, Initial residual = 2.62850374584e-15, Final residual = 2.56199351265e-61, No Iterations 26
DILUPBiCGStab:  Solving for ILambda_52_0, Initial residual = 2.50201096396e-15, Final residual = 6.72973132733e-61, No Iterations 25
DILUPBiCGStab:  Solving for ILambda_53_0, Initial residual = 2.52695138336e-15, Final residual = 2.72996210744e-61, No Iterations 25
DILUPBiCGStab:  Solving for ILambda_54_0, Initial residual = 2.51257831606e-15, Final residual = 5.68962806524e-62, No Iterations 26
DILUPBiCGStab:  Solving for ILambda_55_0, Initial residual = 2.48096871728e-15, Final residual = 6.82042930346e-62, No Iterations 24
DILUPBiCGStab:  Solving for ILambda_56_0, Initial residual = 2.52538504399e-15, Final residual = 5.81204259633e-61, No Iterations 32
DILUPBiCGStab:  Solving for ILambda_57_0, Initial residual = 2.71673814462e-15, Final residual = 5.48607823577e-61, No Iterations 41
DILUPBiCGStab:  Solving for ILambda_58_0, Initial residual = 2.61135151388e-15, Final residual = 8.96568009373e-61, No Iterations 45
DILUPBiCGStab:  Solving for ILambda_59_0, Initial residual = 2.62311265589e-15, Final residual = 5.30414060964e-61, No Iterations 47
DILUPBiCGStab:  Solving for ILambda_60_0, Initial residual = 2.48049147326e-15, Final residual = 8.52103553598e-61, No Iterations 46
DILUPBiCGStab:  Solving for ILambda_61_0, Initial residual = 2.51161159098e-15, Final residual = 2.56518853747e-61, No Iterations 44
DILUPBiCGStab:  Solving for ILambda_62_0, Initial residual = 2.55279462338e-15, Final residual = 1.89225376365e-61, No Iterations 37
DILUPBiCGStab:  Solving for ILambda_63_0, Initial residual = 2.47888570346e-15, Final residual = 9.99810179188e-61, No Iterations 24
DILUPBiCGStab:  Solving for ILambda_64_0, Initial residual = 2.04090077525e-15, Final residual = 9.39302893183e-61, No Iterations 24
DILUPBiCGStab:  Solving for ILambda_65_0, Initial residual = 2.21527160264e-15, Final residual = 6.27611442744e-62, No Iterations 26
DILUPBiCGStab:  Solving for ILambda_66_0, Initial residual = 2.31857521956e-15, Final residual = 5.45116555612e-62, No Iterations 26
DILUPBiCGStab:  Solving for ILambda_67_0, Initial residual = 2.703515358e-15, Final residual = 5.26534633072e-61, No Iterations 25
DILUPBiCGStab:  Solving for ILambda_68_0, Initial residual = 2.51930324207e-15, Final residual = 7.82721975624e-61, No Iterations 26
DILUPBiCGStab:  Solving for ILambda_69_0, Initial residual = 2.48922871027e-15, Final residual = 7.14319745826e-61, No Iterations 26
DILUPBiCGStab:  Solving for ILambda_70_0, Initial residual = 2.37046429037e-15, Final residual = 7.57749095367e-61, No Iterations 25
DILUPBiCGStab:  Solving for ILambda_71_0, Initial residual = 2.05093649654e-15, Final residual = 5.01200445105e-61, No Iterations 24
DILUPBiCGStab:  Solving for ILambda_72_0, Initial residual = 2.04206193308e-15, Final residual = 1.57424252446e-61, No Iterations 32
DILUPBiCGStab:  Solving for ILambda_73_0, Initial residual = 2.21364951681e-15, Final residual = 4.3803509389e-61, No Iterations 41
DILUPBiCGStab:  Solving for ILambda_74_0, Initial residual = 2.30492413681e-15, Final residual = 5.21142529882e-61, No Iterations 45
DILUPBiCGStab:  Solving for ILambda_75_0, Initial residual = 2.71396849786e-15, Final residual = 8.53268858821e-61, No Iterations 47
DILUPBiCGStab:  Solving for ILambda_76_0, Initial residual = 2.518957886e-15, Final residual = 8.74914991508e-61, No Iterations 47
DILUPBiCGStab:  Solving for ILambda_77_0, Initial residual = 2.47357755355e-15, Final residual = 4.14574772446e-61, No Iterations 43
DILUPBiCGStab:  Solving for ILambda_78_0, Initial residual = 2.34272023225e-15, Final residual = 9.30762332761e-61, No Iterations 37
DILUPBiCGStab:  Solving for ILambda_79_0, Initial residual = 2.08114291629e-15, Final residual = 4.07109074374e-61, No Iterations 25
DILUPBiCGStab:  Solving for ILambda_80_0, Initial residual = 2.10685970704e-15, Final residual = 6.49306515046e-63, No Iterations 2
DILUPBiCGStab:  Solving for ILambda_81_0, Initial residual = 2.38680208024e-15, Final residual = 7.01710687565e-63, No Iterations 2
DILUPBiCGStab:  Solving for ILambda_82_0, Initial residual = 2.52927505889e-15, Final residual = 9.47263781356e-63, No Iterations 2
DILUPBiCGStab:  Solving for ILambda_83_0, Initial residual = 2.54175138711e-15, Final residual = 7.43889607044e-63, No Iterations 2
DILUPBiCGStab:  Solving for ILambda_84_0, Initial residual = 2.7211040439e-15, Final residual = 7.28643813962e-63, No Iterations 2
DILUPBiCGStab:  Solving for ILambda_85_0, Initial residual = 2.34845531861e-15, Final residual = 8.36376203297e-63, No Iterations 2
DILUPBiCGStab:  Solving for ILambda_86_0, Initial residual = 2.25485430393e-15, Final residual = 5.74633138284e-63, No Iterations 2
DILUPBiCGStab:  Solving for ILambda_87_0, Initial residual = 2.07583748553e-15, Final residual = 5.68941122264e-63, No Iterations 2
DILUPBiCGStab:  Solving for ILambda_88_0, Initial residual = 2.09420526211e-15, Final residual = 7.13030655665e-62, No Iterations 25
DILUPBiCGStab:  Solving for ILambda_89_0, Initial residual = 2.34911067936e-15, Final residual = 3.50607257371e-61, No Iterations 37
DILUPBiCGStab:  Solving for ILambda_90_0, Initial residual = 2.48226584227e-15, Final residual = 6.19867823854e-61, No Iterations 43
DILUPBiCGStab:  Solving for ILambda_91_0, Initial residual = 2.47527985988e-15, Final residual = 7.14987546554e-61, No Iterations 47
DILUPBiCGStab:  Solving for ILambda_92_0, Initial residual = 2.68990914435e-15, Final residual = 1.51188619069e-61, No Iterations 48
DILUPBiCGStab:  Solving for ILambda_93_0, Initial residual = 2.27213434483e-15, Final residual = 2.70738631871e-61, No Iterations 46
DILUPBiCGStab:  Solving for ILambda_94_0, Initial residual = 2.22902873961e-15, Final residual = 4.56677963993e-61, No Iterations 41
DILUPBiCGStab:  Solving for ILambda_95_0, Initial residual = 2.03478634107e-15, Final residual = 4.29836674643e-61, No Iterations 33
DILUPBiCGStab:  Solving for ILambda_96_0, Initial residual = 7.47311121251e-16, Final residual = 8.80153791956e-62, No Iterations 24
DILUPBiCGStab:  Solving for ILambda_97_0, Initial residual = 8.63138654827e-16, Final residual = 7.03957242955e-63, No Iterations 25
DILUPBiCGStab:  Solving for ILambda_98_0, Initial residual = 9.22628958513e-16, Final residual = 8.8523155126e-61, No Iterations 24
DILUPBiCGStab:  Solving for ILambda_99_0, Initial residual = 9.66273672722e-16, Final residual = 1.72557382827e-62, No Iterations 25
DILUPBiCGStab:  Solving for ILambda_100_0, Initial residual = 9.69550476449e-16, Final residual = 3.11451850457e-61, No Iterations 24
DILUPBiCGStab:  Solving for ILambda_101_0, Initial residual = 9.58025237115e-16, Final residual = 9.55849025438e-61, No Iterations 24
DILUPBiCGStab:  Solving for ILambda_102_0, Initial residual = 8.83719293673e-16, Final residual = 1.67281249544e-61, No Iterations 24
DILUPBiCGStab:  Solving for ILambda_103_0, Initial residual = 7.56395753659e-16, Final residual = 3.37274995013e-63, No Iterations 25
DILUPBiCGStab:  Solving for ILambda_104_0, Initial residual = 7.55590829258e-16, Final residual = 4.26934765323e-62, No Iterations 25
DILUPBiCGStab:  Solving for ILambda_105_0, Initial residual = 8.63203239133e-16, Final residual = 9.14516902629e-61, No Iterations 28
DILUPBiCGStab:  Solving for ILambda_106_0, Initial residual = 9.15353366503e-16, Final residual = 2.55493834549e-61, No Iterations 31
DILUPBiCGStab:  Solving for ILambda_107_0, Initial residual = 9.62890134931e-16, Final residual = 6.53018721107e-61, No Iterations 32
DILUPBiCGStab:  Solving for ILambda_108_0, Initial residual = 9.70324808284e-16, Final residual = 4.48023167096e-62, No Iterations 32
DILUPBiCGStab:  Solving for ILambda_109_0, Initial residual = 9.81969018708e-16, Final residual = 4.7051102266e-61, No Iterations 30
DILUPBiCGStab:  Solving for ILambda_110_0, Initial residual = 9.00670294531e-16, Final residual = 5.13258524397e-61, No Iterations 26
DILUPBiCGStab:  Solving for ILambda_111_0, Initial residual = 7.63128157666e-16, Final residual = 2.54175652353e-61, No Iterations 18
DILUPBiCGStab:  Solving for ILambda_112_0, Initial residual = 7.74672432374e-16, Final residual = 5.83304764957e-63, No Iterations 2
DILUPBiCGStab:  Solving for ILambda_113_0, Initial residual = 9.11177821172e-16, Final residual = 2.18031275269e-63, No Iterations 2
DILUPBiCGStab:  Solving for ILambda_114_0, Initial residual = 1.02854518057e-15, Final residual = 2.45560826789e-63, No Iterations 2
DILUPBiCGStab:  Solving for ILambda_115_0, Initial residual = 9.82106345337e-16, Final residual = 2.25913188514e-63, No Iterations 2
DILUPBiCGStab:  Solving for ILambda_116_0, Initial residual = 1.00272301543e-15, Final residual = 2.22867472109e-63, No Iterations 2
DILUPBiCGStab:  Solving for ILambda_117_0, Initial residual = 9.39435154559e-16, Final residual = 7.08007081459e-63, No Iterations 2
DILUPBiCGStab:  Solving for ILambda_118_0, Initial residual = 8.77290775821e-16, Final residual = 1.98733312145e-63, No Iterations 2
DILUPBiCGStab:  Solving for ILambda_119_0, Initial residual = 7.56706438162e-16, Final residual = 1.77041428578e-63, No Iterations 2
DILUPBiCGStab:  Solving for ILambda_120_0, Initial residual = 7.65347818282e-16, Final residual = 6.56715927439e-61, No Iterations 18
DILUPBiCGStab:  Solving for ILambda_121_0, Initial residual = 9.04467171879e-16, Final residual = 5.08681235374e-62, No Iterations 26
DILUPBiCGStab:  Solving for ILambda_122_0, Initial residual = 1.02229953828e-15, Final residual = 2.33714277103e-61, No Iterations 29
DILUPBiCGStab:  Solving for ILambda_123_0, Initial residual = 9.69816291855e-16, Final residual = 4.25815286604e-61, No Iterations 31
DILUPBiCGStab:  Solving for ILambda_124_0, Initial residual = 9.8300644661e-16, Final residual = 7.27945308425e-61, No Iterations 31
DILUPBiCGStab:  Solving for ILambda_125_0, Initial residual = 9.09104325038e-16, Final residual = 6.40342983819e-61, No Iterations 31
DILUPBiCGStab:  Solving for ILambda_126_0, Initial residual = 8.64136652311e-16, Final residual = 8.52425087636e-62, No Iterations 29
DILUPBiCGStab:  Solving for ILambda_127_0, Initial residual = 7.46515034702e-16, Final residual = 5.49001836527e-65, No Iterations 26
min/max(T) = 1000, 1000
ExecutionTime = 1466.53 s  ClockTime = 1466 s

writeObjects writeObjects1.writeObjects write:
    writing object a
    writing object qem
End

