/*---------------------------------------------------------------------------*\
| =========                 |                                                 |
| \\      /  F ield         | OpenFOAM: The Open Source CFD Toolbox           |
|  \\    /   O peration     | Version:  2306                                  |
|   \\  /    A nd           | Website:  www.openfoam.com                      |
|    \\/     M anipulation  |                                                 |
\*---------------------------------------------------------------------------*/
Build  : _fbf00d6b-20230626 OPENFOAM=2306 version=2306
Arch   : "LSB;label=32;scalar=64"
Exec   : fireRADFoam_MaCFP
Date   : Mar 12 2024
Time   : 20:53:31
Host   : pop-os
PID    : 193158
I/O    : uncollated
Case   : /home/rafay/Desktop/Study/Radiative_Heat_Transfer/Local_copy_RHT2324/01_Projects/02_Rafay/Case_1_q1D_SolidAngle/new_case3/th_8-ph_16/tau_0.0001/res_4
nProcs : 1
trapFpe: Floating point exception trapping enabled (FOAM_SIGFPE).
fileModificationChecking : Monitoring run-time modified files using timeStampMaster (fileModificationSkew 5, maxFileModificationPolls 20)
allowSystemOperations : Allowing user-supplied system call operations

// * * * * * * * * * * * * * * * * * * * * * * * * * * * * * * * * * * * * * //
Create time

Create mesh for time = 0


PIMPLE: no residual control data found. Calculations will employ 10 corrector loops

Reading thermophysical properties

Selecting thermodynamics package 
{
    type            hePsiThermo;
    mixture         singleStepReactingMixture;
    transport       sutherland;
    thermo          janaf;
    energy          sensibleEnthalpy;
    equationOfState perfectGas;
    specie          specie;
}

Selecting chemistryReader foamChemistryReader
    elements not defined in "/home/rafay/Desktop/Study/Radiative_Heat_Transfer/Local_copy_RHT2324/01_Projects/02_Rafay/Case_1_q1D_SolidAngle/new_case3/th_8-ph_16/tau_0.0001/res_4/constant/reactions"
Fuel heat of combustion :47168962.4726
stoichiometric air-fuel ratio :14.6914056505
stoichiometric oxygen-fuel ratio :3.42181919285
Maximum products mass concentrations:
    H2O: 0.0818486943001
    CO2: 0.199950099979
    N2: 0.718201205721
Creating component thermo properties:
    multi-component carrier - 6 species
    no liquid components
    no solid components
Creating field rho


Reading field U

Reading/calculating face flux field phi

Selecting radiationModel fvDOM
Selecting absorptionEmissionModel constantAbsorptionEmission
Selecting scatterModel none
Selecting sootModel none
fvDOM : Allocated 512 rays with average orientation:
	I0 : dAve : 	(9.42486011392e-05 0.00191847434919 0.00718868112899) : omega : 	0.00747310942032 : d : 	(0.00957262838512 0.194855327179 0.980785280403)
	I1 : dAve : 	(0.000281838137867 0.00189999839246 0.00718868112899) : omega : 	0.00747310942032 : d : 	(0.0286256955111 0.19297876386 0.980785280403)
	I2 : dAve : 	(0.000466713419259 0.00186322441257 0.00718868112899) : omega : 	0.00747310942032 : d : 	(0.0474030815409 0.189243709551 0.980785280403)
	I3 : dAve : 	(0.000647093995292 0.00180850656304 0.00718868112899) : omega : 	0.00747310942032 : d : 	(0.0657239499823 0.183686134869 0.980785280403)
	I4 : dAve : 	(0.000821242702413 0.00173637180669 0.00718868112899) : omega : 	0.00747310942032 : d : 	(0.0834118608569 0.176359562295 0.980785280403)
	I5 : dAve : 	(0.000987482393372 0.00164751484063 0.00718868112899) : omega : 	0.00747310942032 : d : 	(0.100296469914 0.167334550727 0.980785280403)
	I6 : dAve : 	(0.00114421208907 0.00154279140604 0.00718868112899) : omega : 	0.00747310942032 : d : 	(0.116215169138 0.156698015962 0.980785280403)
	I7 : dAve : 	(0.00128992239686 0.00142321004683 0.00718868112899) : omega : 	0.00747310942032 : d : 	(0.131014652754 0.144552393644 0.980785280403)
	I8 : dAve : 	(0.00142321004683 0.00128992239686 0.00718868112899) : omega : 	0.00747310942032 : d : 	(0.144552393644 0.131014652754 0.980785280403)
	I9 : dAve : 	(0.00154279140604 0.00114421208907 0.00718868112899) : omega : 	0.00747310942032 : d : 	(0.156698015962 0.116215169138 0.980785280403)
	I10 : dAve : 	(0.00164751484063 0.000987482393372 0.00718868112899) : omega : 	0.00747310942032 : d : 	(0.167334550727 0.100296469914 0.980785280403)
	I11 : dAve : 	(0.00173637180669 0.000821242702413 0.00718868112899) : omega : 	0.00747310942032 : d : 	(0.176359562295 0.0834118608569 0.980785280403)
	I12 : dAve : 	(0.00180850656304 0.000647093995292 0.00718868112899) : omega : 	0.00747310942032 : d : 	(0.183686134869 0.0657239499823 0.980785280403)
	I13 : dAve : 	(0.00186322441257 0.000466713419259 0.00718868112899) : omega : 	0.00747310942032 : d : 	(0.189243709551 0.0474030815409 0.980785280403)
	I14 : dAve : 	(0.00189999839246 0.000281838137867 0.00718868112899) : omega : 	0.00747310942032 : d : 	(0.19297876386 0.0286256955111 0.980785280403)
	I15 : dAve : 	(0.00191847434919 9.42486011392e-05 0.00718868112899) : omega : 	0.00747310942032 : d : 	(0.194855327179 0.00957262838512 0.980785280403)
	I16 : dAve : 	(0.00191847434919 -9.42486011392e-05 0.00718868112899) : omega : 	0.00747310942032 : d : 	(0.194855327179 -0.00957262838512 0.980785280403)
	I17 : dAve : 	(0.00189999839246 -0.000281838137867 0.00718868112899) : omega : 	0.00747310942032 : d : 	(0.19297876386 -0.0286256955111 0.980785280403)
	I18 : dAve : 	(0.00186322441257 -0.000466713419259 0.00718868112899) : omega : 	0.00747310942032 : d : 	(0.189243709551 -0.0474030815409 0.980785280403)
	I19 : dAve : 	(0.00180850656304 -0.000647093995292 0.00718868112899) : omega : 	0.00747310942032 : d : 	(0.183686134869 -0.0657239499823 0.980785280403)
	I20 : dAve : 	(0.00173637180669 -0.000821242702413 0.00718868112899) : omega : 	0.00747310942032 : d : 	(0.176359562295 -0.0834118608569 0.980785280403)
	I21 : dAve : 	(0.00164751484063 -0.000987482393372 0.00718868112899) : omega : 	0.00747310942032 : d : 	(0.167334550727 -0.100296469914 0.980785280403)
	I22 : dAve : 	(0.00154279140604 -0.00114421208907 0.00718868112899) : omega : 	0.00747310942032 : d : 	(0.156698015962 -0.116215169138 0.980785280403)
	I23 : dAve : 	(0.00142321004683 -0.00128992239686 0.00718868112899) : omega : 	0.00747310942032 : d : 	(0.144552393644 -0.131014652754 0.980785280403)
	I24 : dAve : 	(0.00128992239686 -0.00142321004683 0.00718868112899) : omega : 	0.00747310942032 : d : 	(0.131014652754 -0.144552393644 0.980785280403)
	I25 : dAve : 	(0.00114421208907 -0.00154279140604 0.00718868112899) : omega : 	0.00747310942032 : d : 	(0.116215169138 -0.156698015962 0.980785280403)
	I26 : dAve : 	(0.000987482393372 -0.00164751484063 0.00718868112899) : omega : 	0.00747310942032 : d : 	(0.100296469914 -0.167334550727 0.980785280403)
	I27 : dAve : 	(0.000821242702413 -0.00173637180669 0.00718868112899) : omega : 	0.00747310942032 : d : 	(0.0834118608569 -0.176359562295 0.980785280403)
	I28 : dAve : 	(0.000647093995292 -0.00180850656304 0.00718868112899) : omega : 	0.00747310942032 : d : 	(0.0657239499823 -0.183686134869 0.980785280403)
	I29 : dAve : 	(0.000466713419259 -0.00186322441257 0.00718868112899) : omega : 	0.00747310942032 : d : 	(0.0474030815409 -0.189243709551 0.980785280403)
	I30 : dAve : 	(0.000281838137867 -0.00189999839246 0.00718868112899) : omega : 	0.00747310942032 : d : 	(0.0286256955111 -0.19297876386 0.980785280403)
	I31 : dAve : 	(9.42486011392e-05 -0.00191847434919 0.00718868112899) : omega : 	0.00747310942032 : d : 	(0.00957262838512 -0.194855327179 0.980785280403)
	I32 : dAve : 	(-9.42486011392e-05 -0.00191847434919 0.00718868112899) : omega : 	0.00747310942032 : d : 	(-0.00957262838512 -0.194855327179 0.980785280403)
	I33 : dAve : 	(-0.000281838137867 -0.00189999839246 0.00718868112899) : omega : 	0.00747310942032 : d : 	(-0.0286256955111 -0.19297876386 0.980785280403)
	I34 : dAve : 	(-0.000466713419259 -0.00186322441257 0.00718868112899) : omega : 	0.00747310942032 : d : 	(-0.0474030815409 -0.189243709551 0.980785280403)
	I35 : dAve : 	(-0.000647093995292 -0.00180850656304 0.00718868112899) : omega : 	0.00747310942032 : d : 	(-0.0657239499823 -0.183686134869 0.980785280403)
	I36 : dAve : 	(-0.000821242702413 -0.00173637180669 0.00718868112899) : omega : 	0.00747310942032 : d : 	(-0.0834118608569 -0.176359562295 0.980785280403)
	I37 : dAve : 	(-0.000987482393372 -0.00164751484063 0.00718868112899) : omega : 	0.00747310942032 : d : 	(-0.100296469914 -0.167334550727 0.980785280403)
	I38 : dAve : 	(-0.00114421208907 -0.00154279140604 0.00718868112899) : omega : 	0.00747310942032 : d : 	(-0.116215169138 -0.156698015962 0.980785280403)
	I39 : dAve : 	(-0.00128992239686 -0.00142321004683 0.00718868112899) : omega : 	0.00747310942032 : d : 	(-0.131014652754 -0.144552393644 0.980785280403)
	I40 : dAve : 	(-0.00142321004683 -0.00128992239686 0.00718868112899) : omega : 	0.00747310942032 : d : 	(-0.144552393644 -0.131014652754 0.980785280403)
	I41 : dAve : 	(-0.00154279140604 -0.00114421208907 0.00718868112899) : omega : 	0.00747310942032 : d : 	(-0.156698015962 -0.116215169138 0.980785280403)
	I42 : dAve : 	(-0.00164751484063 -0.000987482393372 0.00718868112899) : omega : 	0.00747310942032 : d : 	(-0.167334550727 -0.100296469914 0.980785280403)
	I43 : dAve : 	(-0.00173637180669 -0.000821242702413 0.00718868112899) : omega : 	0.00747310942032 : d : 	(-0.176359562295 -0.0834118608569 0.980785280403)
	I44 : dAve : 	(-0.00180850656304 -0.000647093995292 0.00718868112899) : omega : 	0.00747310942032 : d : 	(-0.183686134869 -0.0657239499823 0.980785280403)
	I45 : dAve : 	(-0.00186322441257 -0.000466713419259 0.00718868112899) : omega : 	0.00747310942032 : d : 	(-0.189243709551 -0.0474030815409 0.980785280403)
	I46 : dAve : 	(-0.00189999839246 -0.000281838137867 0.00718868112899) : omega : 	0.00747310942032 : d : 	(-0.19297876386 -0.0286256955111 0.980785280403)
	I47 : dAve : 	(-0.00191847434919 -9.42486011392e-05 0.00718868112899) : omega : 	0.00747310942032 : d : 	(-0.194855327179 -0.00957262838512 0.980785280403)
	I48 : dAve : 	(-0.00191847434919 9.42486011392e-05 0.00718868112899) : omega : 	0.00747310942032 : d : 	(-0.194855327179 0.00957262838512 0.980785280403)
	I49 : dAve : 	(-0.00189999839246 0.000281838137867 0.00718868112899) : omega : 	0.00747310942032 : d : 	(-0.19297876386 0.0286256955111 0.980785280403)
	I50 : dAve : 	(-0.00186322441257 0.000466713419259 0.00718868112899) : omega : 	0.00747310942032 : d : 	(-0.189243709551 0.0474030815409 0.980785280403)
	I51 : dAve : 	(-0.00180850656304 0.000647093995292 0.00718868112899) : omega : 	0.00747310942032 : d : 	(-0.183686134869 0.0657239499823 0.980785280403)
	I52 : dAve : 	(-0.00173637180669 0.000821242702413 0.00718868112899) : omega : 	0.00747310942032 : d : 	(-0.176359562295 0.0834118608569 0.980785280403)
	I53 : dAve : 	(-0.00164751484063 0.000987482393372 0.00718868112899) : omega : 	0.00747310942032 : d : 	(-0.167334550727 0.100296469914 0.980785280403)
	I54 : dAve : 	(-0.00154279140604 0.00114421208907 0.00718868112899) : omega : 	0.00747310942032 : d : 	(-0.156698015962 0.116215169138 0.980785280403)
	I55 : dAve : 	(-0.00142321004683 0.00128992239686 0.00718868112899) : omega : 	0.00747310942032 : d : 	(-0.144552393644 0.131014652754 0.980785280403)
	I56 : dAve : 	(-0.00128992239686 0.00142321004683 0.00718868112899) : omega : 	0.00747310942032 : d : 	(-0.131014652754 0.144552393644 0.980785280403)
	I57 : dAve : 	(-0.00114421208907 0.00154279140604 0.00718868112899) : omega : 	0.00747310942032 : d : 	(-0.116215169138 0.156698015962 0.980785280403)
	I58 : dAve : 	(-0.000987482393372 0.00164751484063 0.00718868112899) : omega : 	0.00747310942032 : d : 	(-0.100296469914 0.167334550727 0.980785280403)
	I59 : dAve : 	(-0.000821242702413 0.00173637180669 0.00718868112899) : omega : 	0.00747310942032 : d : 	(-0.0834118608569 0.176359562295 0.980785280403)
	I60 : dAve : 	(-0.000647093995292 0.00180850656304 0.00718868112899) : omega : 	0.00747310942032 : d : 	(-0.0657239499823 0.183686134869 0.980785280403)
	I61 : dAve : 	(-0.000466713419259 0.00186322441257 0.00718868112899) : omega : 	0.00747310942032 : d : 	(-0.0474030815409 0.189243709551 0.980785280403)
	I62 : dAve : 	(-0.000281838137867 0.00189999839246 0.00718868112899) : omega : 	0.00747310942032 : d : 	(-0.0286256955111 0.19297876386 0.980785280403)
	I63 : dAve : 	(-9.42486011392e-05 0.00191847434919 0.00718868112899) : omega : 	0.00747310942032 : d : 	(-0.00957262838512 0.194855327179 0.980785280403)
	I64 : dAve : 	(0.000592886480867 0.0120684815666 0.0173550114772) : omega : 	0.0212816150956 : d : 	(0.0272605392598 0.554901024343 0.831469612303)
	I65 : dAve : 	(0.00177294962168 0.0119522554918 0.0173550114772) : omega : 	0.0212816150956 : d : 	(0.0815190838842 0.549557024139 0.831469612303)
	I66 : dAve : 	(0.00293593828845 0.0117209226628 0.0173550114772) : omega : 	0.0212816150956 : d : 	(0.134992555168 0.538920489374 0.831469612303)
	I67 : dAve : 	(0.00407065226456 0.0113767109413 0.0173550114772) : omega : 	0.0212816150956 : d : 	(0.187165974351 0.523093855692 0.831469612303)
	I68 : dAve : 	(0.00516616363411 0.0109229352743 0.0173550114772) : omega : 	0.0212816150956 : d : 	(0.237536882886 0.502229542228 0.831469612303)
	I69 : dAve : 	(0.00621192202375 0.0103639657696 0.0173550114772) : omega : 	0.0212816150956 : d : 	(0.285620181387 0.476528483725 0.831469612303)
	I70 : dAve : 	(0.00719785620852 0.00970518560891 0.0173550114772) : omega : 	0.0212816150956 : d : 	(0.330952801406 0.446238195428 0.831469612303)
	I71 : dAve : 	(0.00811447110325 0.00895293920544 0.0173550114772) : omega : 	0.0212816150956 : d : 	(0.373098165031 0.41165038937 0.831469612303)
	I72 : dAve : 	(0.00895293920544 0.00811447110325 0.0173550114772) : omega : 	0.0212816150956 : d : 	(0.41165038937 0.373098165031 0.831469612303)
	I73 : dAve : 	(0.00970518560891 0.00719785620852 0.0173550114772) : omega : 	0.0212816150956 : d : 	(0.446238195428 0.330952801406 0.831469612303)
	I74 : dAve : 	(0.0103639657696 0.00621192202375 0.0173550114772) : omega : 	0.0212816150956 : d : 	(0.476528483725 0.285620181387 0.831469612303)
	I75 : dAve : 	(0.0109229352743 0.00516616363411 0.0173550114772) : omega : 	0.0212816150956 : d : 	(0.502229542228 0.237536882886 0.831469612303)
	I76 : dAve : 	(0.0113767109413 0.00407065226456 0.0173550114772) : omega : 	0.0212816150956 : d : 	(0.523093855692 0.187165974351 0.831469612303)
	I77 : dAve : 	(0.0117209226628 0.00293593828845 0.0173550114772) : omega : 	0.0212816150956 : d : 	(0.538920489374 0.134992555168 0.831469612303)
	I78 : dAve : 	(0.0119522554918 0.00177294962168 0.0173550114772) : omega : 	0.0212816150956 : d : 	(0.549557024139 0.0815190838842 0.831469612303)
	I79 : dAve : 	(0.0120684815666 0.000592886480867 0.0173550114772) : omega : 	0.0212816150956 : d : 	(0.554901024343 0.0272605392598 0.831469612303)
	I80 : dAve : 	(0.0120684815666 -0.000592886480867 0.0173550114772) : omega : 	0.0212816150956 : d : 	(0.554901024343 -0.0272605392598 0.831469612303)
	I81 : dAve : 	(0.0119522554918 -0.00177294962168 0.0173550114772) : omega : 	0.0212816150956 : d : 	(0.549557024139 -0.0815190838842 0.831469612303)
	I82 : dAve : 	(0.0117209226628 -0.00293593828845 0.0173550114772) : omega : 	0.0212816150956 : d : 	(0.538920489374 -0.134992555168 0.831469612303)
	I83 : dAve : 	(0.0113767109413 -0.00407065226456 0.0173550114772) : omega : 	0.0212816150956 : d : 	(0.523093855692 -0.187165974351 0.831469612303)
	I84 : dAve : 	(0.0109229352743 -0.00516616363411 0.0173550114772) : omega : 	0.0212816150956 : d : 	(0.502229542228 -0.237536882886 0.831469612303)
	I85 : dAve : 	(0.0103639657696 -0.00621192202375 0.0173550114772) : omega : 	0.0212816150956 : d : 	(0.476528483725 -0.285620181387 0.831469612303)
	I86 : dAve : 	(0.00970518560891 -0.00719785620852 0.0173550114772) : omega : 	0.0212816150956 : d : 	(0.446238195428 -0.330952801406 0.831469612303)
	I87 : dAve : 	(0.00895293920544 -0.00811447110325 0.0173550114772) : omega : 	0.0212816150956 : d : 	(0.41165038937 -0.373098165031 0.831469612303)
	I88 : dAve : 	(0.00811447110325 -0.00895293920544 0.0173550114772) : omega : 	0.0212816150956 : d : 	(0.373098165031 -0.41165038937 0.831469612303)
	I89 : dAve : 	(0.00719785620852 -0.00970518560891 0.0173550114772) : omega : 	0.0212816150956 : d : 	(0.330952801406 -0.446238195428 0.831469612303)
	I90 : dAve : 	(0.00621192202375 -0.0103639657696 0.0173550114772) : omega : 	0.0212816150956 : d : 	(0.285620181387 -0.476528483725 0.831469612303)
	I91 : dAve : 	(0.00516616363411 -0.0109229352743 0.0173550114772) : omega : 	0.0212816150956 : d : 	(0.237536882886 -0.502229542228 0.831469612303)
	I92 : dAve : 	(0.00407065226456 -0.0113767109413 0.0173550114772) : omega : 	0.0212816150956 : d : 	(0.187165974351 -0.523093855692 0.831469612303)
	I93 : dAve : 	(0.00293593828845 -0.0117209226628 0.0173550114772) : omega : 	0.0212816150956 : d : 	(0.134992555168 -0.538920489374 0.831469612303)
	I94 : dAve : 	(0.00177294962168 -0.0119522554918 0.0173550114772) : omega : 	0.0212816150956 : d : 	(0.0815190838842 -0.549557024139 0.831469612303)
	I95 : dAve : 	(0.000592886480867 -0.0120684815666 0.0173550114772) : omega : 	0.0212816150956 : d : 	(0.0272605392598 -0.554901024343 0.831469612303)
	I96 : dAve : 	(-0.000592886480867 -0.0120684815666 0.0173550114772) : omega : 	0.0212816150956 : d : 	(-0.0272605392598 -0.554901024343 0.831469612303)
	I97 : dAve : 	(-0.00177294962168 -0.0119522554918 0.0173550114772) : omega : 	0.0212816150956 : d : 	(-0.0815190838842 -0.549557024139 0.831469612303)
	I98 : dAve : 	(-0.00293593828845 -0.0117209226628 0.0173550114772) : omega : 	0.0212816150956 : d : 	(-0.134992555168 -0.538920489374 0.831469612303)
	I99 : dAve : 	(-0.00407065226456 -0.0113767109413 0.0173550114772) : omega : 	0.0212816150956 : d : 	(-0.187165974351 -0.523093855692 0.831469612303)
	I100 : dAve : 	(-0.00516616363411 -0.0109229352743 0.0173550114772) : omega : 	0.0212816150956 : d : 	(-0.237536882886 -0.502229542228 0.831469612303)
	I101 : dAve : 	(-0.00621192202375 -0.0103639657696 0.0173550114772) : omega : 	0.0212816150956 : d : 	(-0.285620181387 -0.476528483725 0.831469612303)
	I102 : dAve : 	(-0.00719785620852 -0.00970518560891 0.0173550114772) : omega : 	0.0212816150956 : d : 	(-0.330952801406 -0.446238195428 0.831469612303)
	I103 : dAve : 	(-0.00811447110325 -0.00895293920544 0.0173550114772) : omega : 	0.0212816150956 : d : 	(-0.373098165031 -0.41165038937 0.831469612303)
	I104 : dAve : 	(-0.00895293920544 -0.00811447110325 0.0173550114772) : omega : 	0.0212816150956 : d : 	(-0.41165038937 -0.373098165031 0.831469612303)
	I105 : dAve : 	(-0.00970518560891 -0.00719785620852 0.0173550114772) : omega : 	0.0212816150956 : d : 	(-0.446238195428 -0.330952801406 0.831469612303)
	I106 : dAve : 	(-0.0103639657696 -0.00621192202375 0.0173550114772) : omega : 	0.0212816150956 : d : 	(-0.476528483725 -0.285620181387 0.831469612303)
	I107 : dAve : 	(-0.0109229352743 -0.00516616363411 0.0173550114772) : omega : 	0.0212816150956 : d : 	(-0.502229542228 -0.237536882886 0.831469612303)
	I108 : dAve : 	(-0.0113767109413 -0.00407065226456 0.0173550114772) : omega : 	0.0212816150956 : d : 	(-0.523093855692 -0.187165974351 0.831469612303)
	I109 : dAve : 	(-0.0117209226628 -0.00293593828845 0.0173550114772) : omega : 	0.0212816150956 : d : 	(-0.538920489374 -0.134992555168 0.831469612303)
	I110 : dAve : 	(-0.0119522554918 -0.00177294962168 0.0173550114772) : omega : 	0.0212816150956 : d : 	(-0.549557024139 -0.0815190838842 0.831469612303)
	I111 : dAve : 	(-0.0120684815666 -0.000592886480867 0.0173550114772) : omega : 	0.0212816150956 : d : 	(-0.554901024343 -0.0272605392598 0.831469612303)
	I112 : dAve : 	(-0.0120684815666 0.000592886480867 0.0173550114772) : omega : 	0.0212816150956 : d : 	(-0.554901024343 0.0272605392598 0.831469612303)
	I113 : dAve : 	(-0.0119522554918 0.00177294962168 0.0173550114772) : omega : 	0.0212816150956 : d : 	(-0.549557024139 0.0815190838842 0.831469612303)
	I114 : dAve : 	(-0.0117209226628 0.00293593828845 0.0173550114772) : omega : 	0.0212816150956 : d : 	(-0.538920489374 0.134992555168 0.831469612303)
	I115 : dAve : 	(-0.0113767109413 0.00407065226456 0.0173550114772) : omega : 	0.0212816150956 : d : 	(-0.523093855692 0.187165974351 0.831469612303)
	I116 : dAve : 	(-0.0109229352743 0.00516616363411 0.0173550114772) : omega : 	0.0212816150956 : d : 	(-0.502229542228 0.237536882886 0.831469612303)
	I117 : dAve : 	(-0.0103639657696 0.00621192202375 0.0173550114772) : omega : 	0.0212816150956 : d : 	(-0.476528483725 0.285620181387 0.831469612303)
	I118 : dAve : 	(-0.00970518560891 0.00719785620852 0.0173550114772) : omega : 	0.0212816150956 : d : 	(-0.446238195428 0.330952801406 0.831469612303)
	I119 : dAve : 	(-0.00895293920544 0.00811447110325 0.0173550114772) : omega : 	0.0212816150956 : d : 	(-0.41165038937 0.373098165031 0.831469612303)
	I120 : dAve : 	(-0.00811447110325 0.00895293920544 0.0173550114772) : omega : 	0.0212816150956 : d : 	(-0.373098165031 0.41165038937 0.831469612303)
	I121 : dAve : 	(-0.00719785620852 0.00970518560891 0.0173550114772) : omega : 	0.0212816150956 : d : 	(-0.330952801406 0.446238195428 0.831469612303)
	I122 : dAve : 	(-0.00621192202375 0.0103639657696 0.0173550114772) : omega : 	0.0212816150956 : d : 	(-0.285620181387 0.476528483725 0.831469612303)
	I123 : dAve : 	(-0.00516616363411 0.0109229352743 0.0173550114772) : omega : 	0.0212816150956 : d : 	(-0.237536882886 0.502229542228 0.831469612303)
	I124 : dAve : 	(-0.00407065226456 0.0113767109413 0.0173550114772) : omega : 	0.0212816150956 : d : 	(-0.187165974351 0.523093855692 0.831469612303)
	I125 : dAve : 	(-0.00293593828845 0.0117209226628 0.0173550114772) : omega : 	0.0212816150956 : d : 	(-0.134992555168 0.538920489374 0.831469612303)
	I126 : dAve : 	(-0.00177294962168 0.0119522554918 0.0173550114772) : omega : 	0.0212816150956 : d : 	(-0.0815190838842 0.549557024139 0.831469612303)
	I127 : dAve : 	(-0.000592886480867 0.0120684815666 0.0173550114772) : omega : 	0.0212816150956 : d : 	(-0.0272605392598 0.554901024343 0.831469612303)
	I128 : dAve : 	(0.00129806693309 0.0264227594316 0.0173550114772) : omega : 	0.031850187791 : d : 	(0.0407982801496 0.83046807074 0.55557023302)
	I129 : dAve : 	(0.00388169970511 0.0261682938141 0.0173550114772) : omega : 	0.031850187791 : d : 	(0.122001930708 0.822470209239 0.55557023302)
	I130 : dAve : 	(0.00642794958701 0.0256618132222 0.0173550114772) : omega : 	0.031850187791 : d : 	(0.202030635981 0.806551510015 0.55557023302)
	I131 : dAve : 	(0.00891229480052 0.0249081953407 0.0173550114772) : omega : 	0.031850187791 : d : 	(0.280113675789 0.782865278843 0.55557023302)
	I132 : dAve : 	(0.0113108097431 0.0239146979219 0.0173550114772) : omega : 	0.031850187791 : d : 	(0.355499067772 0.751639627079 0.55557023302)
	I133 : dAve : 	(0.0136003954048 0.022690888889 0.0173550114772) : omega : 	0.031850187791 : d : 	(0.427460809398 0.713175274818 0.55557023302)
	I134 : dAve : 	(0.015759001824 0.021248554192 0.0173550114772) : omega : 	0.031850187791 : d : 	(0.495305869755 0.667842654799 0.55557023302)
	I135 : dAve : 	(0.0177658404409 0.0196015843026 0.0173550114772) : omega : 	0.031850187791 : d : 	(0.558380863825 0.616078344934 0.55557023302)
	I136 : dAve : 	(0.0196015843026 0.0177658404409 0.0173550114772) : omega : 	0.031850187791 : d : 	(0.616078344934 0.558380863825 0.55557023302)
	I137 : dAve : 	(0.021248554192 0.015759001824 0.0173550114772) : omega : 	0.031850187791 : d : 	(0.667842654799 0.495305869755 0.55557023302)
	I138 : dAve : 	(0.022690888889 0.0136003954048 0.0173550114772) : omega : 	0.031850187791 : d : 	(0.713175274818 0.427460809398 0.55557023302)
	I139 : dAve : 	(0.0239146979219 0.0113108097431 0.0173550114772) : omega : 	0.031850187791 : d : 	(0.751639627079 0.355499067772 0.55557023302)
	I140 : dAve : 	(0.0249081953407 0.00891229480052 0.0173550114772) : omega : 	0.031850187791 : d : 	(0.782865278843 0.280113675789 0.55557023302)
	I141 : dAve : 	(0.0256618132222 0.00642794958701 0.0173550114772) : omega : 	0.031850187791 : d : 	(0.806551510015 0.202030635981 0.55557023302)
	I142 : dAve : 	(0.0261682938141 0.00388169970511 0.0173550114772) : omega : 	0.031850187791 : d : 	(0.822470209239 0.122001930708 0.55557023302)
	I143 : dAve : 	(0.0264227594316 0.00129806693309 0.0173550114772) : omega : 	0.031850187791 : d : 	(0.83046807074 0.0407982801496 0.55557023302)
	I144 : dAve : 	(0.0264227594316 -0.00129806693309 0.0173550114772) : omega : 	0.031850187791 : d : 	(0.83046807074 -0.0407982801496 0.55557023302)
	I145 : dAve : 	(0.0261682938141 -0.00388169970511 0.0173550114772) : omega : 	0.031850187791 : d : 	(0.822470209239 -0.122001930708 0.55557023302)
	I146 : dAve : 	(0.0256618132222 -0.00642794958701 0.0173550114772) : omega : 	0.031850187791 : d : 	(0.806551510015 -0.202030635981 0.55557023302)
	I147 : dAve : 	(0.0249081953407 -0.00891229480052 0.0173550114772) : omega : 	0.031850187791 : d : 	(0.782865278843 -0.280113675789 0.55557023302)
	I148 : dAve : 	(0.0239146979219 -0.0113108097431 0.0173550114772) : omega : 	0.031850187791 : d : 	(0.751639627079 -0.355499067772 0.55557023302)
	I149 : dAve : 	(0.022690888889 -0.0136003954048 0.0173550114772) : omega : 	0.031850187791 : d : 	(0.713175274818 -0.427460809398 0.55557023302)
	I150 : dAve : 	(0.021248554192 -0.015759001824 0.0173550114772) : omega : 	0.031850187791 : d : 	(0.667842654799 -0.495305869755 0.55557023302)
	I151 : dAve : 	(0.0196015843026 -0.0177658404409 0.0173550114772) : omega : 	0.031850187791 : d : 	(0.616078344934 -0.558380863825 0.55557023302)
	I152 : dAve : 	(0.0177658404409 -0.0196015843026 0.0173550114772) : omega : 	0.031850187791 : d : 	(0.558380863825 -0.616078344934 0.55557023302)
	I153 : dAve : 	(0.015759001824 -0.021248554192 0.0173550114772) : omega : 	0.031850187791 : d : 	(0.495305869755 -0.667842654799 0.55557023302)
	I154 : dAve : 	(0.0136003954048 -0.022690888889 0.0173550114772) : omega : 	0.031850187791 : d : 	(0.427460809398 -0.713175274818 0.55557023302)
	I155 : dAve : 	(0.0113108097431 -0.0239146979219 0.0173550114772) : omega : 	0.031850187791 : d : 	(0.355499067772 -0.751639627079 0.55557023302)
	I156 : dAve : 	(0.00891229480052 -0.0249081953407 0.0173550114772) : omega : 	0.031850187791 : d : 	(0.280113675789 -0.782865278843 0.55557023302)
	I157 : dAve : 	(0.00642794958701 -0.0256618132222 0.0173550114772) : omega : 	0.031850187791 : d : 	(0.202030635981 -0.806551510015 0.55557023302)
	I158 : dAve : 	(0.00388169970511 -0.0261682938141 0.0173550114772) : omega : 	0.031850187791 : d : 	(0.122001930708 -0.822470209239 0.55557023302)
	I159 : dAve : 	(0.00129806693309 -0.0264227594316 0.0173550114772) : omega : 	0.031850187791 : d : 	(0.0407982801496 -0.83046807074 0.55557023302)
	I160 : dAve : 	(-0.00129806693309 -0.0264227594316 0.0173550114772) : omega : 	0.031850187791 : d : 	(-0.0407982801496 -0.83046807074 0.55557023302)
	I161 : dAve : 	(-0.00388169970511 -0.0261682938141 0.0173550114772) : omega : 	0.031850187791 : d : 	(-0.122001930708 -0.822470209239 0.55557023302)
	I162 : dAve : 	(-0.00642794958701 -0.0256618132222 0.0173550114772) : omega : 	0.031850187791 : d : 	(-0.202030635981 -0.806551510015 0.55557023302)
	I163 : dAve : 	(-0.00891229480052 -0.0249081953407 0.0173550114772) : omega : 	0.031850187791 : d : 	(-0.280113675789 -0.782865278843 0.55557023302)
	I164 : dAve : 	(-0.0113108097431 -0.0239146979219 0.0173550114772) : omega : 	0.031850187791 : d : 	(-0.355499067772 -0.751639627079 0.55557023302)
	I165 : dAve : 	(-0.0136003954048 -0.022690888889 0.0173550114772) : omega : 	0.031850187791 : d : 	(-0.427460809398 -0.713175274818 0.55557023302)
	I166 : dAve : 	(-0.015759001824 -0.021248554192 0.0173550114772) : omega : 	0.031850187791 : d : 	(-0.495305869755 -0.667842654799 0.55557023302)
	I167 : dAve : 	(-0.0177658404409 -0.0196015843026 0.0173550114772) : omega : 	0.031850187791 : d : 	(-0.558380863825 -0.616078344934 0.55557023302)
	I168 : dAve : 	(-0.0196015843026 -0.0177658404409 0.0173550114772) : omega : 	0.031850187791 : d : 	(-0.616078344934 -0.558380863825 0.55557023302)
	I169 : dAve : 	(-0.021248554192 -0.015759001824 0.0173550114772) : omega : 	0.031850187791 : d : 	(-0.667842654799 -0.495305869755 0.55557023302)
	I170 : dAve : 	(-0.022690888889 -0.0136003954048 0.0173550114772) : omega : 	0.031850187791 : d : 	(-0.713175274818 -0.427460809398 0.55557023302)
	I171 : dAve : 	(-0.0239146979219 -0.0113108097431 0.0173550114772) : omega : 	0.031850187791 : d : 	(-0.751639627079 -0.355499067772 0.55557023302)
	I172 : dAve : 	(-0.0249081953407 -0.00891229480052 0.0173550114772) : omega : 	0.031850187791 : d : 	(-0.782865278843 -0.280113675789 0.55557023302)
	I173 : dAve : 	(-0.0256618132222 -0.00642794958701 0.0173550114772) : omega : 	0.031850187791 : d : 	(-0.806551510015 -0.202030635981 0.55557023302)
	I174 : dAve : 	(-0.0261682938141 -0.00388169970511 0.0173550114772) : omega : 	0.031850187791 : d : 	(-0.822470209239 -0.122001930708 0.55557023302)
	I175 : dAve : 	(-0.0264227594316 -0.00129806693309 0.0173550114772) : omega : 	0.031850187791 : d : 	(-0.83046807074 -0.0407982801496 0.55557023302)
	I176 : dAve : 	(-0.0264227594316 0.00129806693309 0.0173550114772) : omega : 	0.031850187791 : d : 	(-0.83046807074 0.0407982801496 0.55557023302)
	I177 : dAve : 	(-0.0261682938141 0.00388169970511 0.0173550114772) : omega : 	0.031850187791 : d : 	(-0.822470209239 0.122001930708 0.55557023302)
	I178 : dAve : 	(-0.0256618132222 0.00642794958701 0.0173550114772) : omega : 	0.031850187791 : d : 	(-0.806551510015 0.202030635981 0.55557023302)
	I179 : dAve : 	(-0.0249081953407 0.00891229480052 0.0173550114772) : omega : 	0.031850187791 : d : 	(-0.782865278843 0.280113675789 0.55557023302)
	I180 : dAve : 	(-0.0239146979219 0.0113108097431 0.0173550114772) : omega : 	0.031850187791 : d : 	(-0.751639627079 0.355499067772 0.55557023302)
	I181 : dAve : 	(-0.022690888889 0.0136003954048 0.0173550114772) : omega : 	0.031850187791 : d : 	(-0.713175274818 0.427460809398 0.55557023302)
	I182 : dAve : 	(-0.021248554192 0.015759001824 0.0173550114772) : omega : 	0.031850187791 : d : 	(-0.667842654799 0.495305869755 0.55557023302)
	I183 : dAve : 	(-0.0196015843026 0.0177658404409 0.0173550114772) : omega : 	0.031850187791 : d : 	(-0.616078344934 0.558380863825 0.55557023302)
	I184 : dAve : 	(-0.0177658404409 0.0196015843026 0.0173550114772) : omega : 	0.031850187791 : d : 	(-0.558380863825 0.616078344934 0.55557023302)
	I185 : dAve : 	(-0.015759001824 0.021248554192 0.0173550114772) : omega : 	0.031850187791 : d : 	(-0.495305869755 0.667842654799 0.55557023302)
	I186 : dAve : 	(-0.0136003954048 0.022690888889 0.0173550114772) : omega : 	0.031850187791 : d : 	(-0.427460809398 0.713175274818 0.55557023302)
	I187 : dAve : 	(-0.0113108097431 0.0239146979219 0.0173550114772) : omega : 	0.031850187791 : d : 	(-0.355499067772 0.751639627079 0.55557023302)
	I188 : dAve : 	(-0.00891229480052 0.0249081953407 0.0173550114772) : omega : 	0.031850187791 : d : 	(-0.280113675789 0.782865278843 0.55557023302)
	I189 : dAve : 	(-0.00642794958701 0.0256618132222 0.0173550114772) : omega : 	0.031850187791 : d : 	(-0.202030635981 0.806551510015 0.55557023302)
	I190 : dAve : 	(-0.00388169970511 0.0261682938141 0.0173550114772) : omega : 	0.031850187791 : d : 	(-0.122001930708 0.822470209239 0.55557023302)
	I191 : dAve : 	(-0.00129806693309 0.0264227594316 0.0173550114772) : omega : 	0.031850187791 : d : 	(-0.0407982801496 0.83046807074 0.55557023302)
	I192 : dAve : 	(0.00179670481282 0.036572766649 0.00718868112899) : omega : 	0.0375698581178 : d : 	(0.048124852724 0.97960388158 0.195090322016)
	I193 : dAve : 	(0.00537281118893 0.0362205509134 0.00718868112899) : omega : 	0.0375698581178 : d : 	(0.143911089532 0.970169760694 0.195090322016)
	I194 : dAve : 	(0.00889717445621 0.0355195114724 0.00718868112899) : omega : 	0.0375698581178 : d : 	(0.238311383879 0.951392374664 0.195090322016)
	I195 : dAve : 	(0.0123358530698 0.034476399719 0.00718868112899) : omega : 	0.0375698581178 : d : 	(0.330416609324 0.923452559983 0.195090322016)
	I196 : dAve : 	(0.0156557306748 0.0331012613896 0.00718868112899) : omega : 	0.0375698581178 : d : 	(0.419339742198 0.886619392338 0.195090322016)
	I197 : dAve : 	(0.0188248350352 0.031407339818 0.00718868112899) : omega : 	0.0375698581178 : d : 	(0.50422440412 0.841247595269 0.195090322016)
	I198 : dAve : 	(0.0218126459435 0.0294109483949 0.00718868112899) : omega : 	0.0375698581178 : d : 	(0.584253109393 0.787774123985 0.195090322016)
	I199 : dAve : 	(0.0245903891473 0.0271313134612 0.00718868112899) : omega : 	0.0375698581178 : d : 	(0.658655137837 0.726713957246 0.195090322016)
	I200 : dAve : 	(0.0271313134612 0.0245903891473 0.00718868112899) : omega : 	0.0375698581178 : d : 	(0.726713957246 0.658655137837 0.195090322016)
	I201 : dAve : 	(0.0294109483949 0.0218126459435 0.00718868112899) : omega : 	0.0375698581178 : d : 	(0.787774123985 0.584253109393 0.195090322016)
	I202 : dAve : 	(0.031407339818 0.0188248350352 0.00718868112899) : omega : 	0.0375698581178 : d : 	(0.841247595269 0.50422440412 0.195090322016)
	I203 : dAve : 	(0.0331012613896 0.0156557306748 0.00718868112899) : omega : 	0.0375698581178 : d : 	(0.886619392338 0.419339742198 0.195090322016)
	I204 : dAve : 	(0.034476399719 0.0123358530698 0.00718868112899) : omega : 	0.0375698581178 : d : 	(0.923452559983 0.330416609324 0.195090322016)
	I205 : dAve : 	(0.0355195114724 0.00889717445621 0.00718868112899) : omega : 	0.0375698581178 : d : 	(0.951392374664 0.238311383879 0.195090322016)
	I206 : dAve : 	(0.0362205509134 0.00537281118893 0.00718868112899) : omega : 	0.0375698581178 : d : 	(0.970169760694 0.143911089532 0.195090322016)
	I207 : dAve : 	(0.036572766649 0.00179670481282 0.00718868112899) : omega : 	0.0375698581178 : d : 	(0.97960388158 0.048124852724 0.195090322016)
	I208 : dAve : 	(0.036572766649 -0.00179670481282 0.00718868112899) : omega : 	0.0375698581178 : d : 	(0.97960388158 -0.048124852724 0.195090322016)
	I209 : dAve : 	(0.0362205509134 -0.00537281118893 0.00718868112899) : omega : 	0.0375698581178 : d : 	(0.970169760694 -0.143911089532 0.195090322016)
	I210 : dAve : 	(0.0355195114724 -0.00889717445621 0.00718868112899) : omega : 	0.0375698581178 : d : 	(0.951392374664 -0.238311383879 0.195090322016)
	I211 : dAve : 	(0.034476399719 -0.0123358530698 0.00718868112899) : omega : 	0.0375698581178 : d : 	(0.923452559983 -0.330416609324 0.195090322016)
	I212 : dAve : 	(0.0331012613896 -0.0156557306748 0.00718868112899) : omega : 	0.0375698581178 : d : 	(0.886619392338 -0.419339742198 0.195090322016)
	I213 : dAve : 	(0.031407339818 -0.0188248350352 0.00718868112899) : omega : 	0.0375698581178 : d : 	(0.841247595269 -0.50422440412 0.195090322016)
	I214 : dAve : 	(0.0294109483949 -0.0218126459435 0.00718868112899) : omega : 	0.0375698581178 : d : 	(0.787774123985 -0.584253109393 0.195090322016)
	I215 : dAve : 	(0.0271313134612 -0.0245903891473 0.00718868112899) : omega : 	0.0375698581178 : d : 	(0.726713957246 -0.658655137837 0.195090322016)
	I216 : dAve : 	(0.0245903891473 -0.0271313134612 0.00718868112899) : omega : 	0.0375698581178 : d : 	(0.658655137837 -0.726713957246 0.195090322016)
	I217 : dAve : 	(0.0218126459435 -0.0294109483949 0.00718868112899) : omega : 	0.0375698581178 : d : 	(0.584253109393 -0.787774123985 0.195090322016)
	I218 : dAve : 	(0.0188248350352 -0.031407339818 0.00718868112899) : omega : 	0.0375698581178 : d : 	(0.50422440412 -0.841247595269 0.195090322016)
	I219 : dAve : 	(0.0156557306748 -0.0331012613896 0.00718868112899) : omega : 	0.0375698581178 : d : 	(0.419339742198 -0.886619392338 0.195090322016)
	I220 : dAve : 	(0.0123358530698 -0.034476399719 0.00718868112899) : omega : 	0.0375698581178 : d : 	(0.330416609324 -0.923452559983 0.195090322016)
	I221 : dAve : 	(0.00889717445621 -0.0355195114724 0.00718868112899) : omega : 	0.0375698581178 : d : 	(0.238311383879 -0.951392374664 0.195090322016)
	I222 : dAve : 	(0.00537281118893 -0.0362205509134 0.00718868112899) : omega : 	0.0375698581178 : d : 	(0.143911089532 -0.970169760694 0.195090322016)
	I223 : dAve : 	(0.00179670481282 -0.036572766649 0.00718868112899) : omega : 	0.0375698581178 : d : 	(0.048124852724 -0.97960388158 0.195090322016)
	I224 : dAve : 	(-0.00179670481282 -0.036572766649 0.00718868112899) : omega : 	0.0375698581178 : d : 	(-0.048124852724 -0.97960388158 0.195090322016)
	I225 : dAve : 	(-0.00537281118893 -0.0362205509134 0.00718868112899) : omega : 	0.0375698581178 : d : 	(-0.143911089532 -0.970169760694 0.195090322016)
	I226 : dAve : 	(-0.00889717445621 -0.0355195114724 0.00718868112899) : omega : 	0.0375698581178 : d : 	(-0.238311383879 -0.951392374664 0.195090322016)
	I227 : dAve : 	(-0.0123358530698 -0.034476399719 0.00718868112899) : omega : 	0.0375698581178 : d : 	(-0.330416609324 -0.923452559983 0.195090322016)
	I228 : dAve : 	(-0.0156557306748 -0.0331012613896 0.00718868112899) : omega : 	0.0375698581178 : d : 	(-0.419339742198 -0.886619392338 0.195090322016)
	I229 : dAve : 	(-0.0188248350352 -0.031407339818 0.00718868112899) : omega : 	0.0375698581178 : d : 	(-0.50422440412 -0.841247595269 0.195090322016)
	I230 : dAve : 	(-0.0218126459435 -0.0294109483949 0.00718868112899) : omega : 	0.0375698581178 : d : 	(-0.584253109393 -0.787774123985 0.195090322016)
	I231 : dAve : 	(-0.0245903891473 -0.0271313134612 0.00718868112899) : omega : 	0.0375698581178 : d : 	(-0.658655137837 -0.726713957246 0.195090322016)
	I232 : dAve : 	(-0.0271313134612 -0.0245903891473 0.00718868112899) : omega : 	0.0375698581178 : d : 	(-0.726713957246 -0.658655137837 0.195090322016)
	I233 : dAve : 	(-0.0294109483949 -0.0218126459435 0.00718868112899) : omega : 	0.0375698581178 : d : 	(-0.787774123985 -0.584253109393 0.195090322016)
	I234 : dAve : 	(-0.031407339818 -0.0188248350352 0.00718868112899) : omega : 	0.0375698581178 : d : 	(-0.841247595269 -0.50422440412 0.195090322016)
	I235 : dAve : 	(-0.0331012613896 -0.0156557306748 0.00718868112899) : omega : 	0.0375698581178 : d : 	(-0.886619392338 -0.419339742198 0.195090322016)
	I236 : dAve : 	(-0.034476399719 -0.0123358530698 0.00718868112899) : omega : 	0.0375698581178 : d : 	(-0.923452559983 -0.330416609324 0.195090322016)
	I237 : dAve : 	(-0.0355195114724 -0.00889717445621 0.00718868112899) : omega : 	0.0375698581178 : d : 	(-0.951392374664 -0.238311383879 0.195090322016)
	I238 : dAve : 	(-0.0362205509134 -0.00537281118893 0.00718868112899) : omega : 	0.0375698581178 : d : 	(-0.970169760694 -0.143911089532 0.195090322016)
	I239 : dAve : 	(-0.036572766649 -0.00179670481282 0.00718868112899) : omega : 	0.0375698581178 : d : 	(-0.97960388158 -0.048124852724 0.195090322016)
	I240 : dAve : 	(-0.036572766649 0.00179670481282 0.00718868112899) : omega : 	0.0375698581178 : d : 	(-0.97960388158 0.048124852724 0.195090322016)
	I241 : dAve : 	(-0.0362205509134 0.00537281118893 0.00718868112899) : omega : 	0.0375698581178 : d : 	(-0.970169760694 0.143911089532 0.195090322016)
	I242 : dAve : 	(-0.0355195114724 0.00889717445621 0.00718868112899) : omega : 	0.0375698581178 : d : 	(-0.951392374664 0.238311383879 0.195090322016)
	I243 : dAve : 	(-0.034476399719 0.0123358530698 0.00718868112899) : omega : 	0.0375698581178 : d : 	(-0.923452559983 0.330416609324 0.195090322016)
	I244 : dAve : 	(-0.0331012613896 0.0156557306748 0.00718868112899) : omega : 	0.0375698581178 : d : 	(-0.886619392338 0.419339742198 0.195090322016)
	I245 : dAve : 	(-0.031407339818 0.0188248350352 0.00718868112899) : omega : 	0.0375698581178 : d : 	(-0.841247595269 0.50422440412 0.195090322016)
	I246 : dAve : 	(-0.0294109483949 0.0218126459435 0.00718868112899) : omega : 	0.0375698581178 : d : 	(-0.787774123985 0.584253109393 0.195090322016)
	I247 : dAve : 	(-0.0271313134612 0.0245903891473 0.00718868112899) : omega : 	0.0375698581178 : d : 	(-0.726713957246 0.658655137837 0.195090322016)
	I248 : dAve : 	(-0.0245903891473 0.0271313134612 0.00718868112899) : omega : 	0.0375698581178 : d : 	(-0.658655137837 0.726713957246 0.195090322016)
	I249 : dAve : 	(-0.0218126459435 0.0294109483949 0.00718868112899) : omega : 	0.0375698581178 : d : 	(-0.584253109393 0.787774123985 0.195090322016)
	I250 : dAve : 	(-0.0188248350352 0.031407339818 0.00718868112899) : omega : 	0.0375698581178 : d : 	(-0.50422440412 0.841247595269 0.195090322016)
	I251 : dAve : 	(-0.0156557306748 0.0331012613896 0.00718868112899) : omega : 	0.0375698581178 : d : 	(-0.419339742198 0.886619392338 0.195090322016)
	I252 : dAve : 	(-0.0123358530698 0.034476399719 0.00718868112899) : omega : 	0.0375698581178 : d : 	(-0.330416609324 0.923452559983 0.195090322016)
	I253 : dAve : 	(-0.00889717445621 0.0355195114724 0.00718868112899) : omega : 	0.0375698581178 : d : 	(-0.238311383879 0.951392374664 0.195090322016)
	I254 : dAve : 	(-0.00537281118893 0.0362205509134 0.00718868112899) : omega : 	0.0375698581178 : d : 	(-0.143911089532 0.970169760694 0.195090322016)
	I255 : dAve : 	(-0.00179670481282 0.036572766649 0.00718868112899) : omega : 	0.0375698581178 : d : 	(-0.048124852724 0.97960388158 0.195090322016)
	I256 : dAve : 	(0.00179670481282 0.036572766649 -0.00718868112899) : omega : 	0.0375698581178 : d : 	(0.048124852724 0.97960388158 -0.195090322016)
	I257 : dAve : 	(0.00537281118893 0.0362205509134 -0.00718868112899) : omega : 	0.0375698581178 : d : 	(0.143911089532 0.970169760694 -0.195090322016)
	I258 : dAve : 	(0.00889717445621 0.0355195114724 -0.00718868112899) : omega : 	0.0375698581178 : d : 	(0.238311383879 0.951392374664 -0.195090322016)
	I259 : dAve : 	(0.0123358530698 0.034476399719 -0.00718868112899) : omega : 	0.0375698581178 : d : 	(0.330416609324 0.923452559983 -0.195090322016)
	I260 : dAve : 	(0.0156557306748 0.0331012613896 -0.00718868112899) : omega : 	0.0375698581178 : d : 	(0.419339742198 0.886619392338 -0.195090322016)
	I261 : dAve : 	(0.0188248350352 0.031407339818 -0.00718868112899) : omega : 	0.0375698581178 : d : 	(0.50422440412 0.841247595269 -0.195090322016)
	I262 : dAve : 	(0.0218126459435 0.0294109483949 -0.00718868112899) : omega : 	0.0375698581178 : d : 	(0.584253109393 0.787774123985 -0.195090322016)
	I263 : dAve : 	(0.0245903891473 0.0271313134612 -0.00718868112899) : omega : 	0.0375698581178 : d : 	(0.658655137837 0.726713957246 -0.195090322016)
	I264 : dAve : 	(0.0271313134612 0.0245903891473 -0.00718868112899) : omega : 	0.0375698581178 : d : 	(0.726713957246 0.658655137837 -0.195090322016)
	I265 : dAve : 	(0.0294109483949 0.0218126459435 -0.00718868112899) : omega : 	0.0375698581178 : d : 	(0.787774123985 0.584253109393 -0.195090322016)
	I266 : dAve : 	(0.031407339818 0.0188248350352 -0.00718868112899) : omega : 	0.0375698581178 : d : 	(0.841247595269 0.50422440412 -0.195090322016)
	I267 : dAve : 	(0.0331012613896 0.0156557306748 -0.00718868112899) : omega : 	0.0375698581178 : d : 	(0.886619392338 0.419339742198 -0.195090322016)
	I268 : dAve : 	(0.034476399719 0.0123358530698 -0.00718868112899) : omega : 	0.0375698581178 : d : 	(0.923452559983 0.330416609324 -0.195090322016)
	I269 : dAve : 	(0.0355195114724 0.00889717445621 -0.00718868112899) : omega : 	0.0375698581178 : d : 	(0.951392374664 0.238311383879 -0.195090322016)
	I270 : dAve : 	(0.0362205509134 0.00537281118893 -0.00718868112899) : omega : 	0.0375698581178 : d : 	(0.970169760694 0.143911089532 -0.195090322016)
	I271 : dAve : 	(0.036572766649 0.00179670481282 -0.00718868112899) : omega : 	0.0375698581178 : d : 	(0.97960388158 0.048124852724 -0.195090322016)
	I272 : dAve : 	(0.036572766649 -0.00179670481282 -0.00718868112899) : omega : 	0.0375698581178 : d : 	(0.97960388158 -0.048124852724 -0.195090322016)
	I273 : dAve : 	(0.0362205509134 -0.00537281118893 -0.00718868112899) : omega : 	0.0375698581178 : d : 	(0.970169760694 -0.143911089532 -0.195090322016)
	I274 : dAve : 	(0.0355195114724 -0.00889717445621 -0.00718868112899) : omega : 	0.0375698581178 : d : 	(0.951392374664 -0.238311383879 -0.195090322016)
	I275 : dAve : 	(0.034476399719 -0.0123358530698 -0.00718868112899) : omega : 	0.0375698581178 : d : 	(0.923452559983 -0.330416609324 -0.195090322016)
	I276 : dAve : 	(0.0331012613896 -0.0156557306748 -0.00718868112899) : omega : 	0.0375698581178 : d : 	(0.886619392338 -0.419339742198 -0.195090322016)
	I277 : dAve : 	(0.031407339818 -0.0188248350352 -0.00718868112899) : omega : 	0.0375698581178 : d : 	(0.841247595269 -0.50422440412 -0.195090322016)
	I278 : dAve : 	(0.0294109483949 -0.0218126459435 -0.00718868112899) : omega : 	0.0375698581178 : d : 	(0.787774123985 -0.584253109393 -0.195090322016)
	I279 : dAve : 	(0.0271313134612 -0.0245903891473 -0.00718868112899) : omega : 	0.0375698581178 : d : 	(0.726713957246 -0.658655137837 -0.195090322016)
	I280 : dAve : 	(0.0245903891473 -0.0271313134612 -0.00718868112899) : omega : 	0.0375698581178 : d : 	(0.658655137837 -0.726713957246 -0.195090322016)
	I281 : dAve : 	(0.0218126459435 -0.0294109483949 -0.00718868112899) : omega : 	0.0375698581178 : d : 	(0.584253109393 -0.787774123985 -0.195090322016)
	I282 : dAve : 	(0.0188248350352 -0.031407339818 -0.00718868112899) : omega : 	0.0375698581178 : d : 	(0.50422440412 -0.841247595269 -0.195090322016)
	I283 : dAve : 	(0.0156557306748 -0.0331012613896 -0.00718868112899) : omega : 	0.0375698581178 : d : 	(0.419339742198 -0.886619392338 -0.195090322016)
	I284 : dAve : 	(0.0123358530698 -0.034476399719 -0.00718868112899) : omega : 	0.0375698581178 : d : 	(0.330416609324 -0.923452559983 -0.195090322016)
	I285 : dAve : 	(0.00889717445621 -0.0355195114724 -0.00718868112899) : omega : 	0.0375698581178 : d : 	(0.238311383879 -0.951392374664 -0.195090322016)
	I286 : dAve : 	(0.00537281118893 -0.0362205509134 -0.00718868112899) : omega : 	0.0375698581178 : d : 	(0.143911089532 -0.970169760694 -0.195090322016)
	I287 : dAve : 	(0.00179670481282 -0.036572766649 -0.00718868112899) : omega : 	0.0375698581178 : d : 	(0.048124852724 -0.97960388158 -0.195090322016)
	I288 : dAve : 	(-0.00179670481282 -0.036572766649 -0.00718868112899) : omega : 	0.0375698581178 : d : 	(-0.048124852724 -0.97960388158 -0.195090322016)
	I289 : dAve : 	(-0.00537281118893 -0.0362205509134 -0.00718868112899) : omega : 	0.0375698581178 : d : 	(-0.143911089532 -0.970169760694 -0.195090322016)
	I290 : dAve : 	(-0.00889717445621 -0.0355195114724 -0.00718868112899) : omega : 	0.0375698581178 : d : 	(-0.238311383879 -0.951392374664 -0.195090322016)
	I291 : dAve : 	(-0.0123358530698 -0.034476399719 -0.00718868112899) : omega : 	0.0375698581178 : d : 	(-0.330416609324 -0.923452559983 -0.195090322016)
	I292 : dAve : 	(-0.0156557306748 -0.0331012613896 -0.00718868112899) : omega : 	0.0375698581178 : d : 	(-0.419339742198 -0.886619392338 -0.195090322016)
	I293 : dAve : 	(-0.0188248350352 -0.031407339818 -0.00718868112899) : omega : 	0.0375698581178 : d : 	(-0.50422440412 -0.841247595269 -0.195090322016)
	I294 : dAve : 	(-0.0218126459435 -0.0294109483949 -0.00718868112899) : omega : 	0.0375698581178 : d : 	(-0.584253109393 -0.787774123985 -0.195090322016)
	I295 : dAve : 	(-0.0245903891473 -0.0271313134612 -0.00718868112899) : omega : 	0.0375698581178 : d : 	(-0.658655137837 -0.726713957246 -0.195090322016)
	I296 : dAve : 	(-0.0271313134612 -0.0245903891473 -0.00718868112899) : omega : 	0.0375698581178 : d : 	(-0.726713957246 -0.658655137837 -0.195090322016)
	I297 : dAve : 	(-0.0294109483949 -0.0218126459435 -0.00718868112899) : omega : 	0.0375698581178 : d : 	(-0.787774123985 -0.584253109393 -0.195090322016)
	I298 : dAve : 	(-0.031407339818 -0.0188248350352 -0.00718868112899) : omega : 	0.0375698581178 : d : 	(-0.841247595269 -0.50422440412 -0.195090322016)
	I299 : dAve : 	(-0.0331012613896 -0.0156557306748 -0.00718868112899) : omega : 	0.0375698581178 : d : 	(-0.886619392338 -0.419339742198 -0.195090322016)
	I300 : dAve : 	(-0.034476399719 -0.0123358530698 -0.00718868112899) : omega : 	0.0375698581178 : d : 	(-0.923452559983 -0.330416609324 -0.195090322016)
	I301 : dAve : 	(-0.0355195114724 -0.00889717445621 -0.00718868112899) : omega : 	0.0375698581178 : d : 	(-0.951392374664 -0.238311383879 -0.195090322016)
	I302 : dAve : 	(-0.0362205509134 -0.00537281118893 -0.00718868112899) : omega : 	0.0375698581178 : d : 	(-0.970169760694 -0.143911089532 -0.195090322016)
	I303 : dAve : 	(-0.036572766649 -0.00179670481282 -0.00718868112899) : omega : 	0.0375698581178 : d : 	(-0.97960388158 -0.048124852724 -0.195090322016)
	I304 : dAve : 	(-0.036572766649 0.00179670481282 -0.00718868112899) : omega : 	0.0375698581178 : d : 	(-0.97960388158 0.048124852724 -0.195090322016)
	I305 : dAve : 	(-0.0362205509134 0.00537281118893 -0.00718868112899) : omega : 	0.0375698581178 : d : 	(-0.970169760694 0.143911089532 -0.195090322016)
	I306 : dAve : 	(-0.0355195114724 0.00889717445621 -0.00718868112899) : omega : 	0.0375698581178 : d : 	(-0.951392374664 0.238311383879 -0.195090322016)
	I307 : dAve : 	(-0.034476399719 0.0123358530698 -0.00718868112899) : omega : 	0.0375698581178 : d : 	(-0.923452559983 0.330416609324 -0.195090322016)
	I308 : dAve : 	(-0.0331012613896 0.0156557306748 -0.00718868112899) : omega : 	0.0375698581178 : d : 	(-0.886619392338 0.419339742198 -0.195090322016)
	I309 : dAve : 	(-0.031407339818 0.0188248350352 -0.00718868112899) : omega : 	0.0375698581178 : d : 	(-0.841247595269 0.50422440412 -0.195090322016)
	I310 : dAve : 	(-0.0294109483949 0.0218126459435 -0.00718868112899) : omega : 	0.0375698581178 : d : 	(-0.787774123985 0.584253109393 -0.195090322016)
	I311 : dAve : 	(-0.0271313134612 0.0245903891473 -0.00718868112899) : omega : 	0.0375698581178 : d : 	(-0.726713957246 0.658655137837 -0.195090322016)
	I312 : dAve : 	(-0.0245903891473 0.0271313134612 -0.00718868112899) : omega : 	0.0375698581178 : d : 	(-0.658655137837 0.726713957246 -0.195090322016)
	I313 : dAve : 	(-0.0218126459435 0.0294109483949 -0.00718868112899) : omega : 	0.0375698581178 : d : 	(-0.584253109393 0.787774123985 -0.195090322016)
	I314 : dAve : 	(-0.0188248350352 0.031407339818 -0.00718868112899) : omega : 	0.0375698581178 : d : 	(-0.50422440412 0.841247595269 -0.195090322016)
	I315 : dAve : 	(-0.0156557306748 0.0331012613896 -0.00718868112899) : omega : 	0.0375698581178 : d : 	(-0.419339742198 0.886619392338 -0.195090322016)
	I316 : dAve : 	(-0.0123358530698 0.034476399719 -0.00718868112899) : omega : 	0.0375698581178 : d : 	(-0.330416609324 0.923452559983 -0.195090322016)
	I317 : dAve : 	(-0.00889717445621 0.0355195114724 -0.00718868112899) : omega : 	0.0375698581178 : d : 	(-0.238311383879 0.951392374664 -0.195090322016)
	I318 : dAve : 	(-0.00537281118893 0.0362205509134 -0.00718868112899) : omega : 	0.0375698581178 : d : 	(-0.143911089532 0.970169760694 -0.195090322016)
	I319 : dAve : 	(-0.00179670481282 0.036572766649 -0.00718868112899) : omega : 	0.0375698581178 : d : 	(-0.048124852724 0.97960388158 -0.195090322016)
	I320 : dAve : 	(0.00129806693309 0.0264227594316 -0.0173550114772) : omega : 	0.031850187791 : d : 	(0.0407982801496 0.83046807074 -0.55557023302)
	I321 : dAve : 	(0.00388169970511 0.0261682938141 -0.0173550114772) : omega : 	0.031850187791 : d : 	(0.122001930708 0.822470209239 -0.55557023302)
	I322 : dAve : 	(0.00642794958701 0.0256618132222 -0.0173550114772) : omega : 	0.031850187791 : d : 	(0.202030635981 0.806551510015 -0.55557023302)
	I323 : dAve : 	(0.00891229480052 0.0249081953407 -0.0173550114772) : omega : 	0.031850187791 : d : 	(0.280113675789 0.782865278843 -0.55557023302)
	I324 : dAve : 	(0.0113108097431 0.0239146979219 -0.0173550114772) : omega : 	0.031850187791 : d : 	(0.355499067772 0.751639627079 -0.55557023302)
	I325 : dAve : 	(0.0136003954048 0.022690888889 -0.0173550114772) : omega : 	0.031850187791 : d : 	(0.427460809398 0.713175274818 -0.55557023302)
	I326 : dAve : 	(0.015759001824 0.021248554192 -0.0173550114772) : omega : 	0.031850187791 : d : 	(0.495305869755 0.667842654799 -0.55557023302)
	I327 : dAve : 	(0.0177658404409 0.0196015843026 -0.0173550114772) : omega : 	0.031850187791 : d : 	(0.558380863825 0.616078344934 -0.55557023302)
	I328 : dAve : 	(0.0196015843026 0.0177658404409 -0.0173550114772) : omega : 	0.031850187791 : d : 	(0.616078344934 0.558380863825 -0.55557023302)
	I329 : dAve : 	(0.021248554192 0.015759001824 -0.0173550114772) : omega : 	0.031850187791 : d : 	(0.667842654799 0.495305869755 -0.55557023302)
	I330 : dAve : 	(0.022690888889 0.0136003954048 -0.0173550114772) : omega : 	0.031850187791 : d : 	(0.713175274818 0.427460809398 -0.55557023302)
	I331 : dAve : 	(0.0239146979219 0.0113108097431 -0.0173550114772) : omega : 	0.031850187791 : d : 	(0.751639627079 0.355499067772 -0.55557023302)
	I332 : dAve : 	(0.0249081953407 0.00891229480052 -0.0173550114772) : omega : 	0.031850187791 : d : 	(0.782865278843 0.280113675789 -0.55557023302)
	I333 : dAve : 	(0.0256618132222 0.00642794958701 -0.0173550114772) : omega : 	0.031850187791 : d : 	(0.806551510015 0.202030635981 -0.55557023302)
	I334 : dAve : 	(0.0261682938141 0.00388169970511 -0.0173550114772) : omega : 	0.031850187791 : d : 	(0.822470209239 0.122001930708 -0.55557023302)
	I335 : dAve : 	(0.0264227594316 0.00129806693309 -0.0173550114772) : omega : 	0.031850187791 : d : 	(0.83046807074 0.0407982801496 -0.55557023302)
	I336 : dAve : 	(0.0264227594316 -0.00129806693309 -0.0173550114772) : omega : 	0.031850187791 : d : 	(0.83046807074 -0.0407982801496 -0.55557023302)
	I337 : dAve : 	(0.0261682938141 -0.00388169970511 -0.0173550114772) : omega : 	0.031850187791 : d : 	(0.822470209239 -0.122001930708 -0.55557023302)
	I338 : dAve : 	(0.0256618132222 -0.00642794958701 -0.0173550114772) : omega : 	0.031850187791 : d : 	(0.806551510015 -0.202030635981 -0.55557023302)
	I339 : dAve : 	(0.0249081953407 -0.00891229480052 -0.0173550114772) : omega : 	0.031850187791 : d : 	(0.782865278843 -0.280113675789 -0.55557023302)
	I340 : dAve : 	(0.0239146979219 -0.0113108097431 -0.0173550114772) : omega : 	0.031850187791 : d : 	(0.751639627079 -0.355499067772 -0.55557023302)
	I341 : dAve : 	(0.022690888889 -0.0136003954048 -0.0173550114772) : omega : 	0.031850187791 : d : 	(0.713175274818 -0.427460809398 -0.55557023302)
	I342 : dAve : 	(0.021248554192 -0.015759001824 -0.0173550114772) : omega : 	0.031850187791 : d : 	(0.667842654799 -0.495305869755 -0.55557023302)
	I343 : dAve : 	(0.0196015843026 -0.0177658404409 -0.0173550114772) : omega : 	0.031850187791 : d : 	(0.616078344934 -0.558380863825 -0.55557023302)
	I344 : dAve : 	(0.0177658404409 -0.0196015843026 -0.0173550114772) : omega : 	0.031850187791 : d : 	(0.558380863825 -0.616078344934 -0.55557023302)
	I345 : dAve : 	(0.015759001824 -0.021248554192 -0.0173550114772) : omega : 	0.031850187791 : d : 	(0.495305869755 -0.667842654799 -0.55557023302)
	I346 : dAve : 	(0.0136003954048 -0.022690888889 -0.0173550114772) : omega : 	0.031850187791 : d : 	(0.427460809398 -0.713175274818 -0.55557023302)
	I347 : dAve : 	(0.0113108097431 -0.0239146979219 -0.0173550114772) : omega : 	0.031850187791 : d : 	(0.355499067772 -0.751639627079 -0.55557023302)
	I348 : dAve : 	(0.00891229480052 -0.0249081953407 -0.0173550114772) : omega : 	0.031850187791 : d : 	(0.280113675789 -0.782865278843 -0.55557023302)
	I349 : dAve : 	(0.00642794958701 -0.0256618132222 -0.0173550114772) : omega : 	0.031850187791 : d : 	(0.202030635981 -0.806551510015 -0.55557023302)
	I350 : dAve : 	(0.00388169970511 -0.0261682938141 -0.0173550114772) : omega : 	0.031850187791 : d : 	(0.122001930708 -0.822470209239 -0.55557023302)
	I351 : dAve : 	(0.00129806693309 -0.0264227594316 -0.0173550114772) : omega : 	0.031850187791 : d : 	(0.0407982801496 -0.83046807074 -0.55557023302)
	I352 : dAve : 	(-0.00129806693309 -0.0264227594316 -0.0173550114772) : omega : 	0.031850187791 : d : 	(-0.0407982801496 -0.83046807074 -0.55557023302)
	I353 : dAve : 	(-0.00388169970511 -0.0261682938141 -0.0173550114772) : omega : 	0.031850187791 : d : 	(-0.122001930708 -0.822470209239 -0.55557023302)
	I354 : dAve : 	(-0.00642794958701 -0.0256618132222 -0.0173550114772) : omega : 	0.031850187791 : d : 	(-0.202030635981 -0.806551510015 -0.55557023302)
	I355 : dAve : 	(-0.00891229480052 -0.0249081953407 -0.0173550114772) : omega : 	0.031850187791 : d : 	(-0.280113675789 -0.782865278843 -0.55557023302)
	I356 : dAve : 	(-0.0113108097431 -0.0239146979219 -0.0173550114772) : omega : 	0.031850187791 : d : 	(-0.355499067772 -0.751639627079 -0.55557023302)
	I357 : dAve : 	(-0.0136003954048 -0.022690888889 -0.0173550114772) : omega : 	0.031850187791 : d : 	(-0.427460809398 -0.713175274818 -0.55557023302)
	I358 : dAve : 	(-0.015759001824 -0.021248554192 -0.0173550114772) : omega : 	0.031850187791 : d : 	(-0.495305869755 -0.667842654799 -0.55557023302)
	I359 : dAve : 	(-0.0177658404409 -0.0196015843026 -0.0173550114772) : omega : 	0.031850187791 : d : 	(-0.558380863825 -0.616078344934 -0.55557023302)
	I360 : dAve : 	(-0.0196015843026 -0.0177658404409 -0.0173550114772) : omega : 	0.031850187791 : d : 	(-0.616078344934 -0.558380863825 -0.55557023302)
	I361 : dAve : 	(-0.021248554192 -0.015759001824 -0.0173550114772) : omega : 	0.031850187791 : d : 	(-0.667842654799 -0.495305869755 -0.55557023302)
	I362 : dAve : 	(-0.022690888889 -0.0136003954048 -0.0173550114772) : omega : 	0.031850187791 : d : 	(-0.713175274818 -0.427460809398 -0.55557023302)
	I363 : dAve : 	(-0.0239146979219 -0.0113108097431 -0.0173550114772) : omega : 	0.031850187791 : d : 	(-0.751639627079 -0.355499067772 -0.55557023302)
	I364 : dAve : 	(-0.0249081953407 -0.00891229480052 -0.0173550114772) : omega : 	0.031850187791 : d : 	(-0.782865278843 -0.280113675789 -0.55557023302)
	I365 : dAve : 	(-0.0256618132222 -0.00642794958701 -0.0173550114772) : omega : 	0.031850187791 : d : 	(-0.806551510015 -0.202030635981 -0.55557023302)
	I366 : dAve : 	(-0.0261682938141 -0.00388169970511 -0.0173550114772) : omega : 	0.031850187791 : d : 	(-0.822470209239 -0.122001930708 -0.55557023302)
	I367 : dAve : 	(-0.0264227594316 -0.00129806693309 -0.0173550114772) : omega : 	0.031850187791 : d : 	(-0.83046807074 -0.0407982801496 -0.55557023302)
	I368 : dAve : 	(-0.0264227594316 0.00129806693309 -0.0173550114772) : omega : 	0.031850187791 : d : 	(-0.83046807074 0.0407982801496 -0.55557023302)
	I369 : dAve : 	(-0.0261682938141 0.00388169970511 -0.0173550114772) : omega : 	0.031850187791 : d : 	(-0.822470209239 0.122001930708 -0.55557023302)
	I370 : dAve : 	(-0.0256618132222 0.00642794958701 -0.0173550114772) : omega : 	0.031850187791 : d : 	(-0.806551510015 0.202030635981 -0.55557023302)
	I371 : dAve : 	(-0.0249081953407 0.00891229480052 -0.0173550114772) : omega : 	0.031850187791 : d : 	(-0.782865278843 0.280113675789 -0.55557023302)
	I372 : dAve : 	(-0.0239146979219 0.0113108097431 -0.0173550114772) : omega : 	0.031850187791 : d : 	(-0.751639627079 0.355499067772 -0.55557023302)
	I373 : dAve : 	(-0.022690888889 0.0136003954048 -0.0173550114772) : omega : 	0.031850187791 : d : 	(-0.713175274818 0.427460809398 -0.55557023302)
	I374 : dAve : 	(-0.021248554192 0.015759001824 -0.0173550114772) : omega : 	0.031850187791 : d : 	(-0.667842654799 0.495305869755 -0.55557023302)
	I375 : dAve : 	(-0.0196015843026 0.0177658404409 -0.0173550114772) : omega : 	0.031850187791 : d : 	(-0.616078344934 0.558380863825 -0.55557023302)
	I376 : dAve : 	(-0.0177658404409 0.0196015843026 -0.0173550114772) : omega : 	0.031850187791 : d : 	(-0.558380863825 0.616078344934 -0.55557023302)
	I377 : dAve : 	(-0.015759001824 0.021248554192 -0.0173550114772) : omega : 	0.031850187791 : d : 	(-0.495305869755 0.667842654799 -0.55557023302)
	I378 : dAve : 	(-0.0136003954048 0.022690888889 -0.0173550114772) : omega : 	0.031850187791 : d : 	(-0.427460809398 0.713175274818 -0.55557023302)
	I379 : dAve : 	(-0.0113108097431 0.0239146979219 -0.0173550114772) : omega : 	0.031850187791 : d : 	(-0.355499067772 0.751639627079 -0.55557023302)
	I380 : dAve : 	(-0.00891229480052 0.0249081953407 -0.0173550114772) : omega : 	0.031850187791 : d : 	(-0.280113675789 0.782865278843 -0.55557023302)
	I381 : dAve : 	(-0.00642794958701 0.0256618132222 -0.0173550114772) : omega : 	0.031850187791 : d : 	(-0.202030635981 0.806551510015 -0.55557023302)
	I382 : dAve : 	(-0.00388169970511 0.0261682938141 -0.0173550114772) : omega : 	0.031850187791 : d : 	(-0.122001930708 0.822470209239 -0.55557023302)
	I383 : dAve : 	(-0.00129806693309 0.0264227594316 -0.0173550114772) : omega : 	0.031850187791 : d : 	(-0.0407982801496 0.83046807074 -0.55557023302)
	I384 : dAve : 	(0.000592886480867 0.0120684815666 -0.0173550114772) : omega : 	0.0212816150956 : d : 	(0.0272605392598 0.554901024343 -0.831469612303)
	I385 : dAve : 	(0.00177294962168 0.0119522554918 -0.0173550114772) : omega : 	0.0212816150956 : d : 	(0.0815190838842 0.549557024139 -0.831469612303)
	I386 : dAve : 	(0.00293593828845 0.0117209226628 -0.0173550114772) : omega : 	0.0212816150956 : d : 	(0.134992555168 0.538920489374 -0.831469612303)
	I387 : dAve : 	(0.00407065226456 0.0113767109413 -0.0173550114772) : omega : 	0.0212816150956 : d : 	(0.187165974351 0.523093855692 -0.831469612303)
	I388 : dAve : 	(0.00516616363411 0.0109229352743 -0.0173550114772) : omega : 	0.0212816150956 : d : 	(0.237536882886 0.502229542228 -0.831469612303)
	I389 : dAve : 	(0.00621192202375 0.0103639657696 -0.0173550114772) : omega : 	0.0212816150956 : d : 	(0.285620181387 0.476528483725 -0.831469612303)
	I390 : dAve : 	(0.00719785620852 0.00970518560891 -0.0173550114772) : omega : 	0.0212816150956 : d : 	(0.330952801406 0.446238195428 -0.831469612303)
	I391 : dAve : 	(0.00811447110325 0.00895293920544 -0.0173550114772) : omega : 	0.0212816150956 : d : 	(0.373098165031 0.41165038937 -0.831469612303)
	I392 : dAve : 	(0.00895293920544 0.00811447110325 -0.0173550114772) : omega : 	0.0212816150956 : d : 	(0.41165038937 0.373098165031 -0.831469612303)
	I393 : dAve : 	(0.00970518560891 0.00719785620852 -0.0173550114772) : omega : 	0.0212816150956 : d : 	(0.446238195428 0.330952801406 -0.831469612303)
	I394 : dAve : 	(0.0103639657696 0.00621192202375 -0.0173550114772) : omega : 	0.0212816150956 : d : 	(0.476528483725 0.285620181387 -0.831469612303)
	I395 : dAve : 	(0.0109229352743 0.00516616363411 -0.0173550114772) : omega : 	0.0212816150956 : d : 	(0.502229542228 0.237536882886 -0.831469612303)
	I396 : dAve : 	(0.0113767109413 0.00407065226456 -0.0173550114772) : omega : 	0.0212816150956 : d : 	(0.523093855692 0.187165974351 -0.831469612303)
	I397 : dAve : 	(0.0117209226628 0.00293593828845 -0.0173550114772) : omega : 	0.0212816150956 : d : 	(0.538920489374 0.134992555168 -0.831469612303)
	I398 : dAve : 	(0.0119522554918 0.00177294962168 -0.0173550114772) : omega : 	0.0212816150956 : d : 	(0.549557024139 0.0815190838842 -0.831469612303)
	I399 : dAve : 	(0.0120684815666 0.000592886480867 -0.0173550114772) : omega : 	0.0212816150956 : d : 	(0.554901024343 0.0272605392598 -0.831469612303)
	I400 : dAve : 	(0.0120684815666 -0.000592886480867 -0.0173550114772) : omega : 	0.0212816150956 : d : 	(0.554901024343 -0.0272605392598 -0.831469612303)
	I401 : dAve : 	(0.0119522554918 -0.00177294962168 -0.0173550114772) : omega : 	0.0212816150956 : d : 	(0.549557024139 -0.0815190838842 -0.831469612303)
	I402 : dAve : 	(0.0117209226628 -0.00293593828845 -0.0173550114772) : omega : 	0.0212816150956 : d : 	(0.538920489374 -0.134992555168 -0.831469612303)
	I403 : dAve : 	(0.0113767109413 -0.00407065226456 -0.0173550114772) : omega : 	0.0212816150956 : d : 	(0.523093855692 -0.187165974351 -0.831469612303)
	I404 : dAve : 	(0.0109229352743 -0.00516616363411 -0.0173550114772) : omega : 	0.0212816150956 : d : 	(0.502229542228 -0.237536882886 -0.831469612303)
	I405 : dAve : 	(0.0103639657696 -0.00621192202375 -0.0173550114772) : omega : 	0.0212816150956 : d : 	(0.476528483725 -0.285620181387 -0.831469612303)
	I406 : dAve : 	(0.00970518560891 -0.00719785620852 -0.0173550114772) : omega : 	0.0212816150956 : d : 	(0.446238195428 -0.330952801406 -0.831469612303)
	I407 : dAve : 	(0.00895293920544 -0.00811447110325 -0.0173550114772) : omega : 	0.0212816150956 : d : 	(0.41165038937 -0.373098165031 -0.831469612303)
	I408 : dAve : 	(0.00811447110325 -0.00895293920544 -0.0173550114772) : omega : 	0.0212816150956 : d : 	(0.373098165031 -0.41165038937 -0.831469612303)
	I409 : dAve : 	(0.00719785620852 -0.00970518560891 -0.0173550114772) : omega : 	0.0212816150956 : d : 	(0.330952801406 -0.446238195428 -0.831469612303)
	I410 : dAve : 	(0.00621192202375 -0.0103639657696 -0.0173550114772) : omega : 	0.0212816150956 : d : 	(0.285620181387 -0.476528483725 -0.831469612303)
	I411 : dAve : 	(0.00516616363411 -0.0109229352743 -0.0173550114772) : omega : 	0.0212816150956 : d : 	(0.237536882886 -0.502229542228 -0.831469612303)
	I412 : dAve : 	(0.00407065226456 -0.0113767109413 -0.0173550114772) : omega : 	0.0212816150956 : d : 	(0.187165974351 -0.523093855692 -0.831469612303)
	I413 : dAve : 	(0.00293593828845 -0.0117209226628 -0.0173550114772) : omega : 	0.0212816150956 : d : 	(0.134992555168 -0.538920489374 -0.831469612303)
	I414 : dAve : 	(0.00177294962168 -0.0119522554918 -0.0173550114772) : omega : 	0.0212816150956 : d : 	(0.0815190838842 -0.549557024139 -0.831469612303)
	I415 : dAve : 	(0.000592886480867 -0.0120684815666 -0.0173550114772) : omega : 	0.0212816150956 : d : 	(0.0272605392598 -0.554901024343 -0.831469612303)
	I416 : dAve : 	(-0.000592886480867 -0.0120684815666 -0.0173550114772) : omega : 	0.0212816150956 : d : 	(-0.0272605392598 -0.554901024343 -0.831469612303)
	I417 : dAve : 	(-0.00177294962168 -0.0119522554918 -0.0173550114772) : omega : 	0.0212816150956 : d : 	(-0.0815190838842 -0.549557024139 -0.831469612303)
	I418 : dAve : 	(-0.00293593828845 -0.0117209226628 -0.0173550114772) : omega : 	0.0212816150956 : d : 	(-0.134992555168 -0.538920489374 -0.831469612303)
	I419 : dAve : 	(-0.00407065226456 -0.0113767109413 -0.0173550114772) : omega : 	0.0212816150956 : d : 	(-0.187165974351 -0.523093855692 -0.831469612303)
	I420 : dAve : 	(-0.00516616363411 -0.0109229352743 -0.0173550114772) : omega : 	0.0212816150956 : d : 	(-0.237536882886 -0.502229542228 -0.831469612303)
	I421 : dAve : 	(-0.00621192202375 -0.0103639657696 -0.0173550114772) : omega : 	0.0212816150956 : d : 	(-0.285620181387 -0.476528483725 -0.831469612303)
	I422 : dAve : 	(-0.00719785620852 -0.00970518560891 -0.0173550114772) : omega : 	0.0212816150956 : d : 	(-0.330952801406 -0.446238195428 -0.831469612303)
	I423 : dAve : 	(-0.00811447110325 -0.00895293920544 -0.0173550114772) : omega : 	0.0212816150956 : d : 	(-0.373098165031 -0.41165038937 -0.831469612303)
	I424 : dAve : 	(-0.00895293920544 -0.00811447110325 -0.0173550114772) : omega : 	0.0212816150956 : d : 	(-0.41165038937 -0.373098165031 -0.831469612303)
	I425 : dAve : 	(-0.00970518560891 -0.00719785620852 -0.0173550114772) : omega : 	0.0212816150956 : d : 	(-0.446238195428 -0.330952801406 -0.831469612303)
	I426 : dAve : 	(-0.0103639657696 -0.00621192202375 -0.0173550114772) : omega : 	0.0212816150956 : d : 	(-0.476528483725 -0.285620181387 -0.831469612303)
	I427 : dAve : 	(-0.0109229352743 -0.00516616363411 -0.0173550114772) : omega : 	0.0212816150956 : d : 	(-0.502229542228 -0.237536882886 -0.831469612303)
	I428 : dAve : 	(-0.0113767109413 -0.00407065226456 -0.0173550114772) : omega : 	0.0212816150956 : d : 	(-0.523093855692 -0.187165974351 -0.831469612303)
	I429 : dAve : 	(-0.0117209226628 -0.00293593828845 -0.0173550114772) : omega : 	0.0212816150956 : d : 	(-0.538920489374 -0.134992555168 -0.831469612303)
	I430 : dAve : 	(-0.0119522554918 -0.00177294962168 -0.0173550114772) : omega : 	0.0212816150956 : d : 	(-0.549557024139 -0.0815190838842 -0.831469612303)
	I431 : dAve : 	(-0.0120684815666 -0.000592886480867 -0.0173550114772) : omega : 	0.0212816150956 : d : 	(-0.554901024343 -0.0272605392598 -0.831469612303)
	I432 : dAve : 	(-0.0120684815666 0.000592886480867 -0.0173550114772) : omega : 	0.0212816150956 : d : 	(-0.554901024343 0.0272605392598 -0.831469612303)
	I433 : dAve : 	(-0.0119522554918 0.00177294962168 -0.0173550114772) : omega : 	0.0212816150956 : d : 	(-0.549557024139 0.0815190838842 -0.831469612303)
	I434 : dAve : 	(-0.0117209226628 0.00293593828845 -0.0173550114772) : omega : 	0.0212816150956 : d : 	(-0.538920489374 0.134992555168 -0.831469612303)
	I435 : dAve : 	(-0.0113767109413 0.00407065226456 -0.0173550114772) : omega : 	0.0212816150956 : d : 	(-0.523093855692 0.187165974351 -0.831469612303)
	I436 : dAve : 	(-0.0109229352743 0.00516616363411 -0.0173550114772) : omega : 	0.0212816150956 : d : 	(-0.502229542228 0.237536882886 -0.831469612303)
	I437 : dAve : 	(-0.0103639657696 0.00621192202375 -0.0173550114772) : omega : 	0.0212816150956 : d : 	(-0.476528483725 0.285620181387 -0.831469612303)
	I438 : dAve : 	(-0.00970518560891 0.00719785620852 -0.0173550114772) : omega : 	0.0212816150956 : d : 	(-0.446238195428 0.330952801406 -0.831469612303)
	I439 : dAve : 	(-0.00895293920544 0.00811447110325 -0.0173550114772) : omega : 	0.0212816150956 : d : 	(-0.41165038937 0.373098165031 -0.831469612303)
	I440 : dAve : 	(-0.00811447110325 0.00895293920544 -0.0173550114772) : omega : 	0.0212816150956 : d : 	(-0.373098165031 0.41165038937 -0.831469612303)
	I441 : dAve : 	(-0.00719785620852 0.00970518560891 -0.0173550114772) : omega : 	0.0212816150956 : d : 	(-0.330952801406 0.446238195428 -0.831469612303)
	I442 : dAve : 	(-0.00621192202375 0.0103639657696 -0.0173550114772) : omega : 	0.0212816150956 : d : 	(-0.285620181387 0.476528483725 -0.831469612303)
	I443 : dAve : 	(-0.00516616363411 0.0109229352743 -0.0173550114772) : omega : 	0.0212816150956 : d : 	(-0.237536882886 0.502229542228 -0.831469612303)
	I444 : dAve : 	(-0.00407065226456 0.0113767109413 -0.0173550114772) : omega : 	0.0212816150956 : d : 	(-0.187165974351 0.523093855692 -0.831469612303)
	I445 : dAve : 	(-0.00293593828845 0.0117209226628 -0.0173550114772) : omega : 	0.0212816150956 : d : 	(-0.134992555168 0.538920489374 -0.831469612303)
	I446 : dAve : 	(-0.00177294962168 0.0119522554918 -0.0173550114772) : omega : 	0.0212816150956 : d : 	(-0.0815190838842 0.549557024139 -0.831469612303)
	I447 : dAve : 	(-0.000592886480867 0.0120684815666 -0.0173550114772) : omega : 	0.0212816150956 : d : 	(-0.0272605392598 0.554901024343 -0.831469612303)
	I448 : dAve : 	(9.42486011392e-05 0.00191847434919 -0.00718868112899) : omega : 	0.00747310942032 : d : 	(0.00957262838512 0.194855327179 -0.980785280403)
	I449 : dAve : 	(0.000281838137867 0.00189999839246 -0.00718868112899) : omega : 	0.00747310942032 : d : 	(0.0286256955111 0.19297876386 -0.980785280403)
	I450 : dAve : 	(0.000466713419259 0.00186322441257 -0.00718868112899) : omega : 	0.00747310942032 : d : 	(0.0474030815409 0.189243709551 -0.980785280403)
	I451 : dAve : 	(0.000647093995292 0.00180850656304 -0.00718868112899) : omega : 	0.00747310942032 : d : 	(0.0657239499823 0.183686134869 -0.980785280403)
	I452 : dAve : 	(0.000821242702413 0.00173637180669 -0.00718868112899) : omega : 	0.00747310942032 : d : 	(0.0834118608569 0.176359562295 -0.980785280403)
	I453 : dAve : 	(0.000987482393372 0.00164751484063 -0.00718868112899) : omega : 	0.00747310942032 : d : 	(0.100296469914 0.167334550727 -0.980785280403)
	I454 : dAve : 	(0.00114421208907 0.00154279140604 -0.00718868112899) : omega : 	0.00747310942032 : d : 	(0.116215169138 0.156698015962 -0.980785280403)
	I455 : dAve : 	(0.00128992239686 0.00142321004683 -0.00718868112899) : omega : 	0.00747310942032 : d : 	(0.131014652754 0.144552393644 -0.980785280403)
	I456 : dAve : 	(0.00142321004683 0.00128992239686 -0.00718868112899) : omega : 	0.00747310942032 : d : 	(0.144552393644 0.131014652754 -0.980785280403)
	I457 : dAve : 	(0.00154279140604 0.00114421208907 -0.00718868112899) : omega : 	0.00747310942032 : d : 	(0.156698015962 0.116215169138 -0.980785280403)
	I458 : dAve : 	(0.00164751484063 0.000987482393372 -0.00718868112899) : omega : 	0.00747310942032 : d : 	(0.167334550727 0.100296469914 -0.980785280403)
	I459 : dAve : 	(0.00173637180669 0.000821242702413 -0.00718868112899) : omega : 	0.00747310942032 : d : 	(0.176359562295 0.0834118608569 -0.980785280403)
	I460 : dAve : 	(0.00180850656304 0.000647093995292 -0.00718868112899) : omega : 	0.00747310942032 : d : 	(0.183686134869 0.0657239499823 -0.980785280403)
	I461 : dAve : 	(0.00186322441257 0.000466713419259 -0.00718868112899) : omega : 	0.00747310942032 : d : 	(0.189243709551 0.0474030815409 -0.980785280403)
	I462 : dAve : 	(0.00189999839246 0.000281838137867 -0.00718868112899) : omega : 	0.00747310942032 : d : 	(0.19297876386 0.0286256955111 -0.980785280403)
	I463 : dAve : 	(0.00191847434919 9.42486011392e-05 -0.00718868112899) : omega : 	0.00747310942032 : d : 	(0.194855327179 0.00957262838512 -0.980785280403)
	I464 : dAve : 	(0.00191847434919 -9.42486011392e-05 -0.00718868112899) : omega : 	0.00747310942032 : d : 	(0.194855327179 -0.00957262838512 -0.980785280403)
	I465 : dAve : 	(0.00189999839246 -0.000281838137867 -0.00718868112899) : omega : 	0.00747310942032 : d : 	(0.19297876386 -0.0286256955111 -0.980785280403)
	I466 : dAve : 	(0.00186322441257 -0.000466713419259 -0.00718868112899) : omega : 	0.00747310942032 : d : 	(0.189243709551 -0.0474030815409 -0.980785280403)
	I467 : dAve : 	(0.00180850656304 -0.000647093995292 -0.00718868112899) : omega : 	0.00747310942032 : d : 	(0.183686134869 -0.0657239499823 -0.980785280403)
	I468 : dAve : 	(0.00173637180669 -0.000821242702413 -0.00718868112899) : omega : 	0.00747310942032 : d : 	(0.176359562295 -0.0834118608569 -0.980785280403)
	I469 : dAve : 	(0.00164751484063 -0.000987482393372 -0.00718868112899) : omega : 	0.00747310942032 : d : 	(0.167334550727 -0.100296469914 -0.980785280403)
	I470 : dAve : 	(0.00154279140604 -0.00114421208907 -0.00718868112899) : omega : 	0.00747310942032 : d : 	(0.156698015962 -0.116215169138 -0.980785280403)
	I471 : dAve : 	(0.00142321004683 -0.00128992239686 -0.00718868112899) : omega : 	0.00747310942032 : d : 	(0.144552393644 -0.131014652754 -0.980785280403)
	I472 : dAve : 	(0.00128992239686 -0.00142321004683 -0.00718868112899) : omega : 	0.00747310942032 : d : 	(0.131014652754 -0.144552393644 -0.980785280403)
	I473 : dAve : 	(0.00114421208907 -0.00154279140604 -0.00718868112899) : omega : 	0.00747310942032 : d : 	(0.116215169138 -0.156698015962 -0.980785280403)
	I474 : dAve : 	(0.000987482393372 -0.00164751484063 -0.00718868112899) : omega : 	0.00747310942032 : d : 	(0.100296469914 -0.167334550727 -0.980785280403)
	I475 : dAve : 	(0.000821242702413 -0.00173637180669 -0.00718868112899) : omega : 	0.00747310942032 : d : 	(0.0834118608569 -0.176359562295 -0.980785280403)
	I476 : dAve : 	(0.000647093995292 -0.00180850656304 -0.00718868112899) : omega : 	0.00747310942032 : d : 	(0.0657239499823 -0.183686134869 -0.980785280403)
	I477 : dAve : 	(0.000466713419259 -0.00186322441257 -0.00718868112899) : omega : 	0.00747310942032 : d : 	(0.0474030815409 -0.189243709551 -0.980785280403)
	I478 : dAve : 	(0.000281838137867 -0.00189999839246 -0.00718868112899) : omega : 	0.00747310942032 : d : 	(0.0286256955111 -0.19297876386 -0.980785280403)
	I479 : dAve : 	(9.42486011392e-05 -0.00191847434919 -0.00718868112899) : omega : 	0.00747310942032 : d : 	(0.00957262838512 -0.194855327179 -0.980785280403)
	I480 : dAve : 	(-9.42486011392e-05 -0.00191847434919 -0.00718868112899) : omega : 	0.00747310942032 : d : 	(-0.00957262838512 -0.194855327179 -0.980785280403)
	I481 : dAve : 	(-0.000281838137867 -0.00189999839246 -0.00718868112899) : omega : 	0.00747310942032 : d : 	(-0.0286256955111 -0.19297876386 -0.980785280403)
	I482 : dAve : 	(-0.000466713419259 -0.00186322441257 -0.00718868112899) : omega : 	0.00747310942032 : d : 	(-0.0474030815409 -0.189243709551 -0.980785280403)
	I483 : dAve : 	(-0.000647093995292 -0.00180850656304 -0.00718868112899) : omega : 	0.00747310942032 : d : 	(-0.0657239499823 -0.183686134869 -0.980785280403)
	I484 : dAve : 	(-0.000821242702413 -0.00173637180669 -0.00718868112899) : omega : 	0.00747310942032 : d : 	(-0.0834118608569 -0.176359562295 -0.980785280403)
	I485 : dAve : 	(-0.000987482393372 -0.00164751484063 -0.00718868112899) : omega : 	0.00747310942032 : d : 	(-0.100296469914 -0.167334550727 -0.980785280403)
	I486 : dAve : 	(-0.00114421208907 -0.00154279140604 -0.00718868112899) : omega : 	0.00747310942032 : d : 	(-0.116215169138 -0.156698015962 -0.980785280403)
	I487 : dAve : 	(-0.00128992239686 -0.00142321004683 -0.00718868112899) : omega : 	0.00747310942032 : d : 	(-0.131014652754 -0.144552393644 -0.980785280403)
	I488 : dAve : 	(-0.00142321004683 -0.00128992239686 -0.00718868112899) : omega : 	0.00747310942032 : d : 	(-0.144552393644 -0.131014652754 -0.980785280403)
	I489 : dAve : 	(-0.00154279140604 -0.00114421208907 -0.00718868112899) : omega : 	0.00747310942032 : d : 	(-0.156698015962 -0.116215169138 -0.980785280403)
	I490 : dAve : 	(-0.00164751484063 -0.000987482393372 -0.00718868112899) : omega : 	0.00747310942032 : d : 	(-0.167334550727 -0.100296469914 -0.980785280403)
	I491 : dAve : 	(-0.00173637180669 -0.000821242702413 -0.00718868112899) : omega : 	0.00747310942032 : d : 	(-0.176359562295 -0.0834118608569 -0.980785280403)
	I492 : dAve : 	(-0.00180850656304 -0.000647093995292 -0.00718868112899) : omega : 	0.00747310942032 : d : 	(-0.183686134869 -0.0657239499823 -0.980785280403)
	I493 : dAve : 	(-0.00186322441257 -0.000466713419259 -0.00718868112899) : omega : 	0.00747310942032 : d : 	(-0.189243709551 -0.0474030815409 -0.980785280403)
	I494 : dAve : 	(-0.00189999839246 -0.000281838137867 -0.00718868112899) : omega : 	0.00747310942032 : d : 	(-0.19297876386 -0.0286256955111 -0.980785280403)
	I495 : dAve : 	(-0.00191847434919 -9.42486011392e-05 -0.00718868112899) : omega : 	0.00747310942032 : d : 	(-0.194855327179 -0.00957262838512 -0.980785280403)
	I496 : dAve : 	(-0.00191847434919 9.42486011392e-05 -0.00718868112899) : omega : 	0.00747310942032 : d : 	(-0.194855327179 0.00957262838512 -0.980785280403)
	I497 : dAve : 	(-0.00189999839246 0.000281838137867 -0.00718868112899) : omega : 	0.00747310942032 : d : 	(-0.19297876386 0.0286256955111 -0.980785280403)
	I498 : dAve : 	(-0.00186322441257 0.000466713419259 -0.00718868112899) : omega : 	0.00747310942032 : d : 	(-0.189243709551 0.0474030815409 -0.980785280403)
	I499 : dAve : 	(-0.00180850656304 0.000647093995292 -0.00718868112899) : omega : 	0.00747310942032 : d : 	(-0.183686134869 0.0657239499823 -0.980785280403)
	I500 : dAve : 	(-0.00173637180669 0.000821242702413 -0.00718868112899) : omega : 	0.00747310942032 : d : 	(-0.176359562295 0.0834118608569 -0.980785280403)
	I501 : dAve : 	(-0.00164751484063 0.000987482393372 -0.00718868112899) : omega : 	0.00747310942032 : d : 	(-0.167334550727 0.100296469914 -0.980785280403)
	I502 : dAve : 	(-0.00154279140604 0.00114421208907 -0.00718868112899) : omega : 	0.00747310942032 : d : 	(-0.156698015962 0.116215169138 -0.980785280403)
	I503 : dAve : 	(-0.00142321004683 0.00128992239686 -0.00718868112899) : omega : 	0.00747310942032 : d : 	(-0.144552393644 0.131014652754 -0.980785280403)
	I504 : dAve : 	(-0.00128992239686 0.00142321004683 -0.00718868112899) : omega : 	0.00747310942032 : d : 	(-0.131014652754 0.144552393644 -0.980785280403)
	I505 : dAve : 	(-0.00114421208907 0.00154279140604 -0.00718868112899) : omega : 	0.00747310942032 : d : 	(-0.116215169138 0.156698015962 -0.980785280403)
	I506 : dAve : 	(-0.000987482393372 0.00164751484063 -0.00718868112899) : omega : 	0.00747310942032 : d : 	(-0.100296469914 0.167334550727 -0.980785280403)
	I507 : dAve : 	(-0.000821242702413 0.00173637180669 -0.00718868112899) : omega : 	0.00747310942032 : d : 	(-0.0834118608569 0.176359562295 -0.980785280403)
	I508 : dAve : 	(-0.000647093995292 0.00180850656304 -0.00718868112899) : omega : 	0.00747310942032 : d : 	(-0.0657239499823 0.183686134869 -0.980785280403)
	I509 : dAve : 	(-0.000466713419259 0.00186322441257 -0.00718868112899) : omega : 	0.00747310942032 : d : 	(-0.0474030815409 0.189243709551 -0.980785280403)
	I510 : dAve : 	(-0.000281838137867 0.00189999839246 -0.00718868112899) : omega : 	0.00747310942032 : d : 	(-0.0286256955111 0.19297876386 -0.980785280403)
[...]
DILUPBiCGStab:  Solving for ILambda_364_0, Initial residual = 4.60922659003e-16, Final residual = 8.39732884612e-73, No Iterations 2
DILUPBiCGStab:  Solving for ILambda_365_0, Initial residual = 4.56669668242e-16, Final residual = 3.05770358835e-72, No Iterations 2
DILUPBiCGStab:  Solving for ILambda_366_0, Initial residual = 4.68705654766e-16, Final residual = 6.13414355435e-72, No Iterations 2
DILUPBiCGStab:  Solving for ILambda_367_0, Initial residual = 3.28422722885e-16, Final residual = 2.95376404274e-75, No Iterations 2
DILUPBiCGStab:  Solving for ILambda_368_0, Initial residual = 4.52523431127e-16, Final residual = 9.85680616125e-62, No Iterations 33
DILUPBiCGStab:  Solving for ILambda_369_0, Initial residual = 6.12199381337e-16, Final residual = 7.73455413944e-61, No Iterations 45
DILUPBiCGStab:  Solving for ILambda_370_0, Initial residual = 8.31306861438e-16, Final residual = 3.46437283429e-61, No Iterations 53
DILUPBiCGStab:  Solving for ILambda_371_0, Initial residual = 7.7620305067e-16, Final residual = 5.09490534451e-61, No Iterations 64
DILUPBiCGStab:  Solving for ILambda_372_0, Initial residual = 6.51207075986e-16, Final residual = 7.69747510427e-61, No Iterations 66
DILUPBiCGStab:  Solving for ILambda_373_0, Initial residual = 7.97005793665e-16, Final residual = 4.76490074336e-61, No Iterations 72
DILUPBiCGStab:  Solving for ILambda_374_0, Initial residual = 8.86442006813e-16, Final residual = 4.74261957149e-61, No Iterations 76
DILUPBiCGStab:  Solving for ILambda_375_0, Initial residual = 7.26699955658e-16, Final residual = 4.18272492539e-61, No Iterations 80
DILUPBiCGStab:  Solving for ILambda_376_0, Initial residual = 9.48780154367e-16, Final residual = 3.3467889591e-61, No Iterations 80
DILUPBiCGStab:  Solving for ILambda_377_0, Initial residual = 9.51263209061e-16, Final residual = 9.67738842872e-61, No Iterations 73
DILUPBiCGStab:  Solving for ILambda_378_0, Initial residual = 6.26472004784e-16, Final residual = 6.60669575865e-61, No Iterations 71
DILUPBiCGStab:  Solving for ILambda_379_0, Initial residual = 9.49662038526e-16, Final residual = 7.0773559572e-61, No Iterations 68
DILUPBiCGStab:  Solving for ILambda_380_0, Initial residual = 6.31513812734e-16, Final residual = 3.53321684557e-62, No Iterations 62
DILUPBiCGStab:  Solving for ILambda_381_0, Initial residual = 6.7000423282e-16, Final residual = 4.74435398146e-61, No Iterations 58
DILUPBiCGStab:  Solving for ILambda_382_0, Initial residual = 6.42036924974e-16, Final residual = 8.52213180514e-61, No Iterations 45
DILUPBiCGStab:  Solving for ILambda_383_0, Initial residual = 4.33419552256e-16, Final residual = 2.1260553682e-61, No Iterations 32
DILUPBiCGStab:  Solving for ILambda_384_0, Initial residual = 1.63678888303e-16, Final residual = 8.98819187638e-62, No Iterations 17
DILUPBiCGStab:  Solving for ILambda_385_0, Initial residual = 1.52381608389e-16, Final residual = 8.54165046857e-61, No Iterations 20
DILUPBiCGStab:  Solving for ILambda_386_0, Initial residual = 1.64342700365e-16, Final residual = 1.13562862776e-61, No Iterations 18
DILUPBiCGStab:  Solving for ILambda_387_0, Initial residual = 2.32229914951e-16, Final residual = 4.62318946591e-62, No Iterations 19
DILUPBiCGStab:  Solving for ILambda_388_0, Initial residual = 2.35921951927e-16, Final residual = 8.27444414964e-61, No Iterations 18
DILUPBiCGStab:  Solving for ILambda_389_0, Initial residual = 2.34762914862e-16, Final residual = 5.52480073272e-61, No Iterations 20
DILUPBiCGStab:  Solving for ILambda_390_0, Initial residual = 2.37950847092e-16, Final residual = 6.17562316909e-61, No Iterations 19
DILUPBiCGStab:  Solving for ILambda_391_0, Initial residual = 2.41996545716e-16, Final residual = 7.41420057263e-62, No Iterations 18
DILUPBiCGStab:  Solving for ILambda_392_0, Initial residual = 2.38781288619e-16, Final residual = 5.34766559725e-61, No Iterations 19
DILUPBiCGStab:  Solving for ILambda_393_0, Initial residual = 2.5848035561e-16, Final residual = 6.56877686552e-62, No Iterations 20
DILUPBiCGStab:  Solving for ILambda_394_0, Initial residual = 2.50509128041e-16, Final residual = 6.64153864708e-61, No Iterations 19
DILUPBiCGStab:  Solving for ILambda_395_0, Initial residual = 2.5691501101e-16, Final residual = 8.25414967718e-61, No Iterations 19
DILUPBiCGStab:  Solving for ILambda_396_0, Initial residual = 2.48911987426e-16, Final residual = 5.05031657448e-61, No Iterations 19
DILUPBiCGStab:  Solving for ILambda_397_0, Initial residual = 1.7687690263e-16, Final residual = 1.15931793213e-61, No Iterations 19
DILUPBiCGStab:  Solving for ILambda_398_0, Initial residual = 1.70812507441e-16, Final residual = 2.52364716118e-62, No Iterations 19
DILUPBiCGStab:  Solving for ILambda_399_0, Initial residual = 1.58915466913e-16, Final residual = 5.05227238469e-62, No Iterations 19
DILUPBiCGStab:  Solving for ILambda_400_0, Initial residual = 1.64906944287e-16, Final residual = 1.85756654112e-61, No Iterations 29
DILUPBiCGStab:  Solving for ILambda_401_0, Initial residual = 2.24818289923e-16, Final residual = 5.73325752946e-61, No Iterations 46
DILUPBiCGStab:  Solving for ILambda_402_0, Initial residual = 2.81833539652e-16, Final residual = 5.16825217929e-61, No Iterations 54
DILUPBiCGStab:  Solving for ILambda_403_0, Initial residual = 3.27482403465e-16, Final residual = 8.78593046213e-61, No Iterations 61
DILUPBiCGStab:  Solving for ILambda_404_0, Initial residual = 3.939161749e-16, Final residual = 1.49317769518e-61, No Iterations 65
DILUPBiCGStab:  Solving for ILambda_405_0, Initial residual = 3.31422390149e-16, Final residual = 4.20962873578e-61, No Iterations 72
DILUPBiCGStab:  Solving for ILambda_406_0, Initial residual = 3.60666910167e-16, Final residual = 8.55842842821e-61, No Iterations 74
DILUPBiCGStab:  Solving for ILambda_407_0, Initial residual = 3.81245937633e-16, Final residual = 1.98848685665e-61, No Iterations 79
DILUPBiCGStab:  Solving for ILambda_408_0, Initial residual = 3.71789208654e-16, Final residual = 7.90210635482e-61, No Iterations 75
DILUPBiCGStab:  Solving for ILambda_409_0, Initial residual = 3.76517216099e-16, Final residual = 8.60703988606e-61, No Iterations 78
DILUPBiCGStab:  Solving for ILambda_410_0, Initial residual = 4.44964674665e-16, Final residual = 7.04845661869e-61, No Iterations 75
DILUPBiCGStab:  Solving for ILambda_411_0, Initial residual = 3.52398922697e-16, Final residual = 8.71295439493e-61, No Iterations 69
DILUPBiCGStab:  Solving for ILambda_412_0, Initial residual = 3.62904723241e-16, Final residual = 3.97513030352e-61, No Iterations 62
DILUPBiCGStab:  Solving for ILambda_413_0, Initial residual = 2.16075875857e-16, Final residual = 6.20781355374e-61, No Iterations 53
DILUPBiCGStab:  Solving for ILambda_414_0, Initial residual = 2.19283173214e-16, Final residual = 2.91384302504e-61, No Iterations 44
DILUPBiCGStab:  Solving for ILambda_415_0, Initial residual = 2.09445766554e-16, Final residual = 5.81740592864e-62, No Iterations 31
DILUPBiCGStab:  Solving for ILambda_416_0, Initial residual = 1.60581000504e-16, Final residual = 5.86748252764e-74, No Iterations 2
DILUPBiCGStab:  Solving for ILambda_417_0, Initial residual = 1.79801274091e-16, Final residual = 4.0237031689e-61, No Iterations 2
DILUPBiCGStab:  Solving for ILambda_418_0, Initial residual = 1.84753375784e-16, Final residual = 9.09603893858e-61, No Iterations 2
DILUPBiCGStab:  Solving for ILambda_419_0, Initial residual = 2.46879191488e-16, Final residual = 3.90064058902e-75, No Iterations 2
DILUPBiCGStab:  Solving for ILambda_420_0, Initial residual = 2.56008657173e-16, Final residual = 3.01942948311e-61, No Iterations 2
DILUPBiCGStab:  Solving for ILambda_421_0, Initial residual = 2.58685461173e-16, Final residual = 6.30743672711e-61, No Iterations 2
DILUPBiCGStab:  Solving for ILambda_422_0, Initial residual = 2.62791042475e-16, Final residual = 2.61216945323e-61, No Iterations 2
DILUPBiCGStab:  Solving for ILambda_423_0, Initial residual = 2.46098841581e-16, Final residual = 1.23915839532e-75, No Iterations 2
DILUPBiCGStab:  Solving for ILambda_424_0, Initial residual = 2.4472937576e-16, Final residual = 1.57087173342e-74, No Iterations 2
DILUPBiCGStab:  Solving for ILambda_425_0, Initial residual = 2.36505579983e-16, Final residual = 6.3675776196e-75, No Iterations 2
DILUPBiCGStab:  Solving for ILambda_426_0, Initial residual = 2.41894286516e-16, Final residual = 1.49905178074e-74, No Iterations 2
DILUPBiCGStab:  Solving for ILambda_427_0, Initial residual = 2.33864133707e-16, Final residual = 1.25576364945e-61, No Iterations 2
DILUPBiCGStab:  Solving for ILambda_428_0, Initial residual = 2.35741008784e-16, Final residual = 2.50066840316e-75, No Iterations 2
DILUPBiCGStab:  Solving for ILambda_429_0, Initial residual = 1.57030494957e-16, Final residual = 2.30111539854e-61, No Iterations 2
DILUPBiCGStab:  Solving for ILambda_430_0, Initial residual = 1.46770564111e-16, Final residual = 1.44127918112e-74, No Iterations 2
DILUPBiCGStab:  Solving for ILambda_431_0, Initial residual = 1.47831710136e-16, Final residual = 2.60349815875e-74, No Iterations 2
DILUPBiCGStab:  Solving for ILambda_432_0, Initial residual = 2.06045569075e-16, Final residual = 5.43148784595e-61, No Iterations 30
DILUPBiCGStab:  Solving for ILambda_433_0, Initial residual = 1.93471307555e-16, Final residual = 4.21854041539e-61, No Iterations 46
DILUPBiCGStab:  Solving for ILambda_434_0, Initial residual = 2.74393588071e-16, Final residual = 7.15388694029e-61, No Iterations 54
DILUPBiCGStab:  Solving for ILambda_435_0, Initial residual = 3.4261443415e-16, Final residual = 4.8357597722e-61, No Iterations 63
DILUPBiCGStab:  Solving for ILambda_436_0, Initial residual = 3.38839158525e-16, Final residual = 5.26235643354e-61, No Iterations 66
DILUPBiCGStab:  Solving for ILambda_437_0, Initial residual = 3.81313523155e-16, Final residual = 2.70314408062e-61, No Iterations 69
DILUPBiCGStab:  Solving for ILambda_438_0, Initial residual = 3.52712083626e-16, Final residual = 2.82009626823e-61, No Iterations 77
DILUPBiCGStab:  Solving for ILambda_439_0, Initial residual = 4.20740837149e-16, Final residual = 8.96502465212e-61, No Iterations 76
DILUPBiCGStab:  Solving for ILambda_440_0, Initial residual = 3.86005474278e-16, Final residual = 1.9694289435e-61, No Iterations 81
DILUPBiCGStab:  Solving for ILambda_441_0, Initial residual = 3.47339905568e-16, Final residual = 2.97188806365e-61, No Iterations 78
DILUPBiCGStab:  Solving for ILambda_442_0, Initial residual = 3.73498428056e-16, Final residual = 3.46788266082e-61, No Iterations 71
DILUPBiCGStab:  Solving for ILambda_443_0, Initial residual = 2.79398234255e-16, Final residual = 4.98707644848e-61, No Iterations 69
DILUPBiCGStab:  Solving for ILambda_444_0, Initial residual = 3.02901927761e-16, Final residual = 4.56023009166e-61, No Iterations 63
DILUPBiCGStab:  Solving for ILambda_445_0, Initial residual = 3.12400576429e-16, Final residual = 5.3233651186e-61, No Iterations 54
DILUPBiCGStab:  Solving for ILambda_446_0, Initial residual = 2.46906072493e-16, Final residual = 8.46630349811e-61, No Iterations 45
DILUPBiCGStab:  Solving for ILambda_447_0, Initial residual = 1.72358796696e-16, Final residual = 4.66440266287e-61, No Iterations 32
DILUPBiCGStab:  Solving for ILambda_448_0, Initial residual = 8.1535492156e-17, Final residual = 1.12810176232e-61, No Iterations 15
DILUPBiCGStab:  Solving for ILambda_449_0, Initial residual = 8.92109672312e-17, Final residual = 8.61533151244e-61, No Iterations 15
DILUPBiCGStab:  Solving for ILambda_450_0, Initial residual = 8.94993116361e-17, Final residual = 1.15300745547e-61, No Iterations 16
DILUPBiCGStab:  Solving for ILambda_451_0, Initial residual = 7.58732861903e-17, Final residual = 3.79707363274e-62, No Iterations 15
DILUPBiCGStab:  Solving for ILambda_452_0, Initial residual = 7.54992437943e-17, Final residual = 6.28783068403e-62, No Iterations 16
DILUPBiCGStab:  Solving for ILambda_453_0, Initial residual = 7.78093637749e-17, Final residual = 5.74997597312e-62, No Iterations 16
DILUPBiCGStab:  Solving for ILambda_454_0, Initial residual = 7.31716289236e-17, Final residual = 2.67935628672e-62, No Iterations 17
DILUPBiCGStab:  Solving for ILambda_455_0, Initial residual = 7.78268743545e-17, Final residual = 1.02387810797e-61, No Iterations 16
DILUPBiCGStab:  Solving for ILambda_456_0, Initial residual = 8.42762172437e-17, Final residual = 1.1197993667e-61, No Iterations 16
DILUPBiCGStab:  Solving for ILambda_457_0, Initial residual = 7.04765950261e-17, Final residual = 2.59216927749e-61, No Iterations 15
DILUPBiCGStab:  Solving for ILambda_458_0, Initial residual = 7.88318953727e-17, Final residual = 7.54973493353e-61, No Iterations 16
DILUPBiCGStab:  Solving for ILambda_459_0, Initial residual = 8.25852302498e-17, Final residual = 5.90004153574e-61, No Iterations 15
DILUPBiCGStab:  Solving for ILambda_460_0, Initial residual = 8.15321092473e-17, Final residual = 7.28513808192e-61, No Iterations 16
DILUPBiCGStab:  Solving for ILambda_461_0, Initial residual = 1.14322082356e-16, Final residual = 1.00406123679e-61, No Iterations 16
DILUPBiCGStab:  Solving for ILambda_462_0, Initial residual = 1.11236672715e-16, Final residual = 1.62416718049e-61, No Iterations 15
DILUPBiCGStab:  Solving for ILambda_463_0, Initial residual = 1.07656596942e-16, Final residual = 2.61136164368e-61, No Iterations 15
DILUPBiCGStab:  Solving for ILambda_464_0, Initial residual = 9.27954234028e-17, Final residual = 1.20996564389e-61, No Iterations 31
DILUPBiCGStab:  Solving for ILambda_465_0, Initial residual = 1.0683448476e-16, Final residual = 2.54679141941e-61, No Iterations 45
DILUPBiCGStab:  Solving for ILambda_466_0, Initial residual = 1.18020486511e-16, Final residual = 4.46921837964e-61, No Iterations 54
DILUPBiCGStab:  Solving for ILambda_467_0, Initial residual = 1.26883161707e-16, Final residual = 4.58753090661e-61, No Iterations 62
DILUPBiCGStab:  Solving for ILambda_468_0, Initial residual = 9.86373624878e-17, Final residual = 3.62000744976e-61, No Iterations 65
DILUPBiCGStab:  Solving for ILambda_469_0, Initial residual = 1.36554815431e-16, Final residual = 9.7072395939e-62, No Iterations 72
DILUPBiCGStab:  Solving for ILambda_470_0, Initial residual = 1.28134859582e-16, Final residual = 6.84057622577e-61, No Iterations 75
DILUPBiCGStab:  Solving for ILambda_471_0, Initial residual = 1.4783458523e-16, Final residual = 5.01480729095e-61, No Iterations 77
DILUPBiCGStab:  Solving for ILambda_472_0, Initial residual = 1.28227506957e-16, Final residual = 6.49822502209e-61, No Iterations 79
DILUPBiCGStab:  Solving for ILambda_473_0, Initial residual = 1.1870190917e-16, Final residual = 4.57478177285e-61, No Iterations 72
DILUPBiCGStab:  Solving for ILambda_474_0, Initial residual = 1.37921805833e-16, Final residual = 4.91422978288e-61, No Iterations 70
DILUPBiCGStab:  Solving for ILambda_475_0, Initial residual = 1.15954481627e-16, Final residual = 6.21272601648e-61, No Iterations 68
DILUPBiCGStab:  Solving for ILambda_476_0, Initial residual = 1.50910518469e-16, Final residual = 7.27173354811e-61, No Iterations 60
DILUPBiCGStab:  Solving for ILambda_477_0, Initial residual = 1.35157810942e-16, Final residual = 3.62068427168e-61, No Iterations 53
DILUPBiCGStab:  Solving for ILambda_478_0, Initial residual = 1.34176945299e-16, Final residual = 9.0103091562e-61, No Iterations 46
DILUPBiCGStab:  Solving for ILambda_479_0, Initial residual = 1.08134418551e-16, Final residual = 5.24951828439e-61, No Iterations 32
DILUPBiCGStab:  Solving for ILambda_480_0, Initial residual = 9.88315726672e-17, Final residual = 1.27325180338e-61, No Iterations 2
DILUPBiCGStab:  Solving for ILambda_481_0, Initial residual = 1.1223107318e-16, Final residual = 1.14425593759e-75, No Iterations 2
DILUPBiCGStab:  Solving for ILambda_482_0, Initial residual = 1.15659139917e-16, Final residual = 1.20377627762e-61, No Iterations 2
DILUPBiCGStab:  Solving for ILambda_483_0, Initial residual = 7.95629899004e-17, Final residual = 8.98010978729e-75, No Iterations 2
DILUPBiCGStab:  Solving for ILambda_484_0, Initial residual = 7.97743100558e-17, Final residual = 5.69619684509e-61, No Iterations 2
DILUPBiCGStab:  Solving for ILambda_485_0, Initial residual = 7.47118786066e-17, Final residual = 5.72813608461e-75, No Iterations 2
DILUPBiCGStab:  Solving for ILambda_486_0, Initial residual = 7.44396955624e-17, Final residual = 8.63096588567e-61, No Iterations 2
DILUPBiCGStab:  Solving for ILambda_487_0, Initial residual = 7.59533605691e-17, Final residual = 1.44585393789e-61, No Iterations 2
DILUPBiCGStab:  Solving for ILambda_488_0, Initial residual = 7.88538895558e-17, Final residual = 1.43297672221e-61, No Iterations 2
DILUPBiCGStab:  Solving for ILambda_489_0, Initial residual = 7.50675035312e-17, Final residual = 6.22807902109e-62, No Iterations 2
DILUPBiCGStab:  Solving for ILambda_490_0, Initial residual = 7.50930151731e-17, Final residual = 1.7206951592e-61, No Iterations 2
DILUPBiCGStab:  Solving for ILambda_491_0, Initial residual = 7.35916383745e-17, Final residual = 4.04742121374e-61, No Iterations 2
DILUPBiCGStab:  Solving for ILambda_492_0, Initial residual = 7.45714886769e-17, Final residual = 9.50536467661e-62, No Iterations 2
DILUPBiCGStab:  Solving for ILambda_493_0, Initial residual = 8.81355607034e-17, Final residual = 1.61744860342e-61, No Iterations 2
DILUPBiCGStab:  Solving for ILambda_494_0, Initial residual = 8.80667053939e-17, Final residual = 1.93447511263e-75, No Iterations 2
DILUPBiCGStab:  Solving for ILambda_495_0, Initial residual = 8.6605662439e-17, Final residual = 4.08966023984e-61, No Iterations 2
DILUPBiCGStab:  Solving for ILambda_496_0, Initial residual = 1.10793932155e-16, Final residual = 1.07949793684e-62, No Iterations 31
DILUPBiCGStab:  Solving for ILambda_497_0, Initial residual = 1.37684741735e-16, Final residual = 2.69201564834e-61, No Iterations 44
DILUPBiCGStab:  Solving for ILambda_498_0, Initial residual = 1.43538725852e-16, Final residual = 9.42863485963e-61, No Iterations 54
DILUPBiCGStab:  Solving for ILambda_499_0, Initial residual = 1.28433184941e-16, Final residual = 7.90336963199e-61, No Iterations 62
DILUPBiCGStab:  Solving for ILambda_500_0, Initial residual = 1.14378758578e-16, Final residual = 4.54049711824e-61, No Iterations 67
DILUPBiCGStab:  Solving for ILambda_501_0, Initial residual = 1.31100283032e-16, Final residual = 4.14741521489e-61, No Iterations 72
DILUPBiCGStab:  Solving for ILambda_502_0, Initial residual = 1.25314637168e-16, Final residual = 5.69836133373e-61, No Iterations 74
DILUPBiCGStab:  Solving for ILambda_503_0, Initial residual = 1.46358453063e-16, Final residual = 8.57455010544e-61, No Iterations 75
DILUPBiCGStab:  Solving for ILambda_504_0, Initial residual = 1.11687108899e-16, Final residual = 7.23628340735e-61, No Iterations 75
DILUPBiCGStab:  Solving for ILambda_505_0, Initial residual = 1.23584202787e-16, Final residual = 6.44347569222e-61, No Iterations 75
DILUPBiCGStab:  Solving for ILambda_506_0, Initial residual = 1.16965417174e-16, Final residual = 6.16103942917e-61, No Iterations 71
DILUPBiCGStab:  Solving for ILambda_507_0, Initial residual = 1.10497791505e-16, Final residual = 1.17817151439e-61, No Iterations 67
DILUPBiCGStab:  Solving for ILambda_508_0, Initial residual = 1.1218182373e-16, Final residual = 8.92572371686e-61, No Iterations 62
DILUPBiCGStab:  Solving for ILambda_509_0, Initial residual = 1.21616500341e-16, Final residual = 7.59790352854e-61, No Iterations 55
DILUPBiCGStab:  Solving for ILambda_510_0, Initial residual = 1.03102509284e-16, Final residual = 6.89048747364e-61, No Iterations 47
DILUPBiCGStab:  Solving for ILambda_511_0, Initial residual = 8.7579653852e-17, Final residual = 3.66357481534e-61, No Iterations 30
min/max(T) = 1000, 1000
ExecutionTime = 1094.09 s  ClockTime = 1095 s

writeObjects writeObjects1.writeObjects write:
    writing object a
    writing object qem
End

