/*---------------------------------------------------------------------------*\
| =========                 |                                                 |
| \\      /  F ield         | OpenFOAM: The Open Source CFD Toolbox           |
|  \\    /   O peration     | Version:  2306                                  |
|   \\  /    A nd           | Website:  www.openfoam.com                      |
|    \\/     M anipulation  |                                                 |
\*---------------------------------------------------------------------------*/
Build  : _fbf00d6b-20230626 OPENFOAM=2306 version=2306
Arch   : "LSB;label=32;scalar=64"
Exec   : fireRADFoam_MaCFP
Date   : Mar 12 2024
Time   : 19:44:13
Host   : pop-os
PID    : 174104
I/O    : uncollated
Case   : /home/rafay/Desktop/Study/Radiative_Heat_Transfer/Local_copy_RHT2324/01_Projects/02_Rafay/Case_1_q1D_SolidAngle/new_case3/th_4-ph_8/tau_0.0001/res_4
nProcs : 1
trapFpe: Floating point exception trapping enabled (FOAM_SIGFPE).
fileModificationChecking : Monitoring run-time modified files using timeStampMaster (fileModificationSkew 5, maxFileModificationPolls 20)
allowSystemOperations : Allowing user-supplied system call operations

// * * * * * * * * * * * * * * * * * * * * * * * * * * * * * * * * * * * * * //
Create time

Create mesh for time = 0


PIMPLE: no residual control data found. Calculations will employ 10 corrector loops

Reading thermophysical properties

Selecting thermodynamics package 
{
    type            hePsiThermo;
    mixture         singleStepReactingMixture;
    transport       sutherland;
    thermo          janaf;
    energy          sensibleEnthalpy;
    equationOfState perfectGas;
    specie          specie;
}

Selecting chemistryReader foamChemistryReader
    elements not defined in "/home/rafay/Desktop/Study/Radiative_Heat_Transfer/Local_copy_RHT2324/01_Projects/02_Rafay/Case_1_q1D_SolidAngle/new_case3/th_4-ph_8/tau_0.0001/res_4/constant/reactions"
Fuel heat of combustion :47168962.4726
stoichiometric air-fuel ratio :14.6914056505
stoichiometric oxygen-fuel ratio :3.42181919285
Maximum products mass concentrations:
    H2O: 0.0818486943001
    CO2: 0.199950099979
    N2: 0.718201205721
Creating component thermo properties:
    multi-component carrier - 6 species
    no liquid components
    no solid components
Creating field rho


Reading field U

Reading/calculating face flux field phi

Selecting radiationModel fvDOM
Selecting absorptionEmissionModel constantAbsorptionEmission
Selecting scatterModel none
Selecting sootModel none
fvDOM : Allocated 128 rays with average orientation:
	I0 : dAve : 	(0.00274192284156 0.0278392098 0.0490873852123) : omega : 	0.0575094490319 : d : 	(0.0375095356919 0.38084070704 0.923879532511)
	I1 : dAve : 	(0.00812039796756 0.0267693645798 0.0490873852123) : omega : 	0.0575094490319 : d : 	(0.111087136655 0.366205212247 0.923879532511)
	I2 : dAve : 	(0.0131868107536 0.0246707876912 0.0490873852123) : omega : 	0.0575094490319 : d : 	(0.180395721254 0.337496656517 0.923879532511)
	I3 : dAve : 	(0.0177464617977 0.0216241262672 0.0490873852123) : omega : 	0.0575094490319 : d : 	(0.242771799453 0.295818293547 0.923879532511)
	I4 : dAve : 	(0.0216241262672 0.0177464617977 0.0490873852123) : omega : 	0.0575094490319 : d : 	(0.295818293547 0.242771799453 0.923879532511)
	I5 : dAve : 	(0.0246707876912 0.0131868107536 0.0490873852123) : omega : 	0.0575094490319 : d : 	(0.337496656517 0.180395721254 0.923879532511)
	I6 : dAve : 	(0.0267693645798 0.00812039796756 0.0490873852123) : omega : 	0.0575094490319 : d : 	(0.366205212247 0.111087136655 0.923879532511)
	I7 : dAve : 	(0.0278392098 0.00274192284156 0.0490873852123) : omega : 	0.0575094490319 : d : 	(0.38084070704 0.0375095356919 0.923879532511)
	I8 : dAve : 	(0.0278392098 -0.00274192284156 0.0490873852123) : omega : 	0.0575094490319 : d : 	(0.38084070704 -0.0375095356919 0.923879532511)
	I9 : dAve : 	(0.0267693645798 -0.00812039796756 0.0490873852123) : omega : 	0.0575094490319 : d : 	(0.366205212247 -0.111087136655 0.923879532511)
	I10 : dAve : 	(0.0246707876912 -0.0131868107536 0.0490873852123) : omega : 	0.0575094490319 : d : 	(0.337496656517 -0.180395721254 0.923879532511)
	I11 : dAve : 	(0.0216241262672 -0.0177464617977 0.0490873852123) : omega : 	0.0575094490319 : d : 	(0.295818293547 -0.242771799453 0.923879532511)
	I12 : dAve : 	(0.0177464617977 -0.0216241262672 0.0490873852123) : omega : 	0.0575094490319 : d : 	(0.242771799453 -0.295818293547 0.923879532511)
	I13 : dAve : 	(0.0131868107536 -0.0246707876912 0.0490873852123) : omega : 	0.0575094490319 : d : 	(0.180395721254 -0.337496656517 0.923879532511)
	I14 : dAve : 	(0.00812039796756 -0.0267693645798 0.0490873852123) : omega : 	0.0575094490319 : d : 	(0.111087136655 -0.366205212247 0.923879532511)
	I15 : dAve : 	(0.00274192284156 -0.0278392098 0.0490873852123) : omega : 	0.0575094490319 : d : 	(0.0375095356919 -0.38084070704 0.923879532511)
	I16 : dAve : 	(-0.00274192284156 -0.0278392098 0.0490873852123) : omega : 	0.0575094490319 : d : 	(-0.0375095356919 -0.38084070704 0.923879532511)
	I17 : dAve : 	(-0.00812039796756 -0.0267693645798 0.0490873852123) : omega : 	0.0575094490319 : d : 	(-0.111087136655 -0.366205212247 0.923879532511)
	I18 : dAve : 	(-0.0131868107536 -0.0246707876912 0.0490873852123) : omega : 	0.0575094490319 : d : 	(-0.180395721254 -0.337496656517 0.923879532511)
	I19 : dAve : 	(-0.0177464617977 -0.0216241262672 0.0490873852123) : omega : 	0.0575094490319 : d : 	(-0.242771799453 -0.295818293547 0.923879532511)
	I20 : dAve : 	(-0.0216241262672 -0.0177464617977 0.0490873852123) : omega : 	0.0575094490319 : d : 	(-0.295818293547 -0.242771799453 0.923879532511)
	I21 : dAve : 	(-0.0246707876912 -0.0131868107536 0.0490873852123) : omega : 	0.0575094490319 : d : 	(-0.337496656517 -0.180395721254 0.923879532511)
	I22 : dAve : 	(-0.0267693645798 -0.00812039796756 0.0490873852123) : omega : 	0.0575094490319 : d : 	(-0.366205212247 -0.111087136655 0.923879532511)
	I23 : dAve : 	(-0.0278392098 -0.00274192284156 0.0490873852123) : omega : 	0.0575094490319 : d : 	(-0.38084070704 -0.0375095356919 0.923879532511)
	I24 : dAve : 	(-0.0278392098 0.00274192284156 0.0490873852123) : omega : 	0.0575094490319 : d : 	(-0.38084070704 0.0375095356919 0.923879532511)
	I25 : dAve : 	(-0.0267693645798 0.00812039796756 0.0490873852123) : omega : 	0.0575094490319 : d : 	(-0.366205212247 0.111087136655 0.923879532511)
	I26 : dAve : 	(-0.0246707876912 0.0131868107536 0.0490873852123) : omega : 	0.0575094490319 : d : 	(-0.337496656517 0.180395721254 0.923879532511)
	I27 : dAve : 	(-0.0216241262672 0.0177464617977 0.0490873852123) : omega : 	0.0575094490319 : d : 	(-0.295818293547 0.242771799453 0.923879532511)
	I28 : dAve : 	(-0.0177464617977 0.0216241262672 0.0490873852123) : omega : 	0.0575094490319 : d : 	(-0.242771799453 0.295818293547 0.923879532511)
	I29 : dAve : 	(-0.0131868107536 0.0246707876912 0.0490873852123) : omega : 	0.0575094490319 : d : 	(-0.180395721254 0.337496656517 0.923879532511)
	I30 : dAve : 	(-0.00812039796756 0.0267693645798 0.0490873852123) : omega : 	0.0575094490319 : d : 	(-0.111087136655 0.366205212247 0.923879532511)
	I31 : dAve : 	(-0.00274192284156 0.0278392098 0.0490873852123) : omega : 	0.0575094490319 : d : 	(-0.0375095356919 0.38084070704 0.923879532511)
	I32 : dAve : 	(0.0123492826399 0.125384370808 0.0490873852123) : omega : 	0.138840091817 : d : 	(0.0905560297858 0.91943080004 0.382683432365)
	I33 : dAve : 	(0.0365732719135 0.120565919754 0.0490873852123) : omega : 	0.138840091817 : d : 	(0.268188071917 0.884097590017 0.382683432365)
	I34 : dAve : 	(0.059391770858 0.111114188018 0.0490873852123) : omega : 	0.138840091817 : d : 	(0.435513796846 0.814789005418 0.382683432365)
	I35 : dAve : 	(0.0799278773557 0.0973924003507 0.0490873852123) : omega : 	0.138840091817 : d : 	(0.586102970801 0.714168536279 0.382683432365)
	I36 : dAve : 	(0.0973924003507 0.0799278773557 0.0490873852123) : omega : 	0.138840091817 : d : 	(0.714168536279 0.586102970801 0.382683432365)
	I37 : dAve : 	(0.111114188018 0.059391770858 0.0490873852123) : omega : 	0.138840091817 : d : 	(0.814789005418 0.435513796846 0.382683432365)
	I38 : dAve : 	(0.120565919754 0.0365732719135 0.0490873852123) : omega : 	0.138840091817 : d : 	(0.884097590017 0.268188071917 0.382683432365)
	I39 : dAve : 	(0.125384370808 0.0123492826399 0.0490873852123) : omega : 	0.138840091817 : d : 	(0.91943080004 0.0905560297858 0.382683432365)
	I40 : dAve : 	(0.125384370808 -0.0123492826399 0.0490873852123) : omega : 	0.138840091817 : d : 	(0.91943080004 -0.0905560297858 0.382683432365)
	I41 : dAve : 	(0.120565919754 -0.0365732719135 0.0490873852123) : omega : 	0.138840091817 : d : 	(0.884097590017 -0.268188071917 0.382683432365)
	I42 : dAve : 	(0.111114188018 -0.059391770858 0.0490873852123) : omega : 	0.138840091817 : d : 	(0.814789005418 -0.435513796846 0.382683432365)
	I43 : dAve : 	(0.0973924003507 -0.0799278773557 0.0490873852123) : omega : 	0.138840091817 : d : 	(0.714168536279 -0.586102970801 0.382683432365)
	I44 : dAve : 	(0.0799278773557 -0.0973924003507 0.0490873852123) : omega : 	0.138840091817 : d : 	(0.586102970801 -0.714168536279 0.382683432365)
	I45 : dAve : 	(0.059391770858 -0.111114188018 0.0490873852123) : omega : 	0.138840091817 : d : 	(0.435513796846 -0.814789005418 0.382683432365)
	I46 : dAve : 	(0.0365732719135 -0.120565919754 0.0490873852123) : omega : 	0.138840091817 : d : 	(0.268188071917 -0.884097590017 0.382683432365)
	I47 : dAve : 	(0.0123492826399 -0.125384370808 0.0490873852123) : omega : 	0.138840091817 : d : 	(0.0905560297858 -0.91943080004 0.382683432365)
	I48 : dAve : 	(-0.0123492826399 -0.125384370808 0.0490873852123) : omega : 	0.138840091817 : d : 	(-0.0905560297858 -0.91943080004 0.382683432365)
	I49 : dAve : 	(-0.0365732719135 -0.120565919754 0.0490873852123) : omega : 	0.138840091817 : d : 	(-0.268188071917 -0.884097590017 0.382683432365)
	I50 : dAve : 	(-0.059391770858 -0.111114188018 0.0490873852123) : omega : 	0.138840091817 : d : 	(-0.435513796846 -0.814789005418 0.382683432365)
	I51 : dAve : 	(-0.0799278773557 -0.0973924003507 0.0490873852123) : omega : 	0.138840091817 : d : 	(-0.586102970801 -0.714168536279 0.382683432365)
	I52 : dAve : 	(-0.0973924003507 -0.0799278773557 0.0490873852123) : omega : 	0.138840091817 : d : 	(-0.714168536279 -0.586102970801 0.382683432365)
	I53 : dAve : 	(-0.111114188018 -0.059391770858 0.0490873852123) : omega : 	0.138840091817 : d : 	(-0.814789005418 -0.435513796846 0.382683432365)
	I54 : dAve : 	(-0.120565919754 -0.0365732719135 0.0490873852123) : omega : 	0.138840091817 : d : 	(-0.884097590017 -0.268188071917 0.382683432365)
	I55 : dAve : 	(-0.125384370808 -0.0123492826399 0.0490873852123) : omega : 	0.138840091817 : d : 	(-0.91943080004 -0.0905560297858 0.382683432365)
	I56 : dAve : 	(-0.125384370808 0.0123492826399 0.0490873852123) : omega : 	0.138840091817 : d : 	(-0.91943080004 0.0905560297858 0.382683432365)
	I57 : dAve : 	(-0.120565919754 0.0365732719135 0.0490873852123) : omega : 	0.138840091817 : d : 	(-0.884097590017 0.268188071917 0.382683432365)
	I58 : dAve : 	(-0.111114188018 0.059391770858 0.0490873852123) : omega : 	0.138840091817 : d : 	(-0.814789005418 0.435513796846 0.382683432365)
	I59 : dAve : 	(-0.0973924003507 0.0799278773557 0.0490873852123) : omega : 	0.138840091817 : d : 	(-0.714168536279 0.586102970801 0.382683432365)
	I60 : dAve : 	(-0.0799278773557 0.0973924003507 0.0490873852123) : omega : 	0.138840091817 : d : 	(-0.586102970801 0.714168536279 0.382683432365)
	I61 : dAve : 	(-0.059391770858 0.111114188018 0.0490873852123) : omega : 	0.138840091817 : d : 	(-0.435513796846 0.814789005418 0.382683432365)
	I62 : dAve : 	(-0.0365732719135 0.120565919754 0.0490873852123) : omega : 	0.138840091817 : d : 	(-0.268188071917 0.884097590017 0.382683432365)
	I63 : dAve : 	(-0.0123492826399 0.125384370808 0.0490873852123) : omega : 	0.138840091817 : d : 	(-0.0905560297858 0.91943080004 0.382683432365)
	I64 : dAve : 	(0.0123492826399 0.125384370808 -0.0490873852123) : omega : 	0.138840091817 : d : 	(0.0905560297858 0.91943080004 -0.382683432365)
	I65 : dAve : 	(0.0365732719135 0.120565919754 -0.0490873852123) : omega : 	0.138840091817 : d : 	(0.268188071917 0.884097590017 -0.382683432365)
	I66 : dAve : 	(0.059391770858 0.111114188018 -0.0490873852123) : omega : 	0.138840091817 : d : 	(0.435513796846 0.814789005418 -0.382683432365)
	I67 : dAve : 	(0.0799278773557 0.0973924003507 -0.0490873852123) : omega : 	0.138840091817 : d : 	(0.586102970801 0.714168536279 -0.382683432365)
	I68 : dAve : 	(0.0973924003507 0.0799278773557 -0.0490873852123) : omega : 	0.138840091817 : d : 	(0.714168536279 0.586102970801 -0.382683432365)
	I69 : dAve : 	(0.111114188018 0.059391770858 -0.0490873852123) : omega : 	0.138840091817 : d : 	(0.814789005418 0.435513796846 -0.382683432365)
	I70 : dAve : 	(0.120565919754 0.0365732719135 -0.0490873852123) : omega : 	0.138840091817 : d : 	(0.884097590017 0.268188071917 -0.382683432365)
	I71 : dAve : 	(0.125384370808 0.0123492826399 -0.0490873852123) : omega : 	0.138840091817 : d : 	(0.91943080004 0.0905560297858 -0.382683432365)
	I72 : dAve : 	(0.125384370808 -0.0123492826399 -0.0490873852123) : omega : 	0.138840091817 : d : 	(0.91943080004 -0.0905560297858 -0.382683432365)
	I73 : dAve : 	(0.120565919754 -0.0365732719135 -0.0490873852123) : omega : 	0.138840091817 : d : 	(0.884097590017 -0.268188071917 -0.382683432365)
	I74 : dAve : 	(0.111114188018 -0.059391770858 -0.0490873852123) : omega : 	0.138840091817 : d : 	(0.814789005418 -0.435513796846 -0.382683432365)
	I75 : dAve : 	(0.0973924003507 -0.0799278773557 -0.0490873852123) : omega : 	0.138840091817 : d : 	(0.714168536279 -0.586102970801 -0.382683432365)
	I76 : dAve : 	(0.0799278773557 -0.0973924003507 -0.0490873852123) : omega : 	0.138840091817 : d : 	(0.586102970801 -0.714168536279 -0.382683432365)
	I77 : dAve : 	(0.059391770858 -0.111114188018 -0.0490873852123) : omega : 	0.138840091817 : d : 	(0.435513796846 -0.814789005418 -0.382683432365)
	I78 : dAve : 	(0.0365732719135 -0.120565919754 -0.0490873852123) : omega : 	0.138840091817 : d : 	(0.268188071917 -0.884097590017 -0.382683432365)
	I79 : dAve : 	(0.0123492826399 -0.125384370808 -0.0490873852123) : omega : 	0.138840091817 : d : 	(0.0905560297858 -0.91943080004 -0.382683432365)
	I80 : dAve : 	(-0.0123492826399 -0.125384370808 -0.0490873852123) : omega : 	0.138840091817 : d : 	(-0.0905560297858 -0.91943080004 -0.382683432365)
	I81 : dAve : 	(-0.0365732719135 -0.120565919754 -0.0490873852123) : omega : 	0.138840091817 : d : 	(-0.268188071917 -0.884097590017 -0.382683432365)
	I82 : dAve : 	(-0.059391770858 -0.111114188018 -0.0490873852123) : omega : 	0.138840091817 : d : 	(-0.435513796846 -0.814789005418 -0.382683432365)
	I83 : dAve : 	(-0.0799278773557 -0.0973924003507 -0.0490873852123) : omega : 	0.138840091817 : d : 	(-0.586102970801 -0.714168536279 -0.382683432365)
	I84 : dAve : 	(-0.0973924003507 -0.0799278773557 -0.0490873852123) : omega : 	0.138840091817 : d : 	(-0.714168536279 -0.586102970801 -0.382683432365)
	I85 : dAve : 	(-0.111114188018 -0.059391770858 -0.0490873852123) : omega : 	0.138840091817 : d : 	(-0.814789005418 -0.435513796846 -0.382683432365)
	I86 : dAve : 	(-0.120565919754 -0.0365732719135 -0.0490873852123) : omega : 	0.138840091817 : d : 	(-0.884097590017 -0.268188071917 -0.382683432365)
	I87 : dAve : 	(-0.125384370808 -0.0123492826399 -0.0490873852123) : omega : 	0.138840091817 : d : 	(-0.91943080004 -0.0905560297858 -0.382683432365)
	I88 : dAve : 	(-0.125384370808 0.0123492826399 -0.0490873852123) : omega : 	0.138840091817 : d : 	(-0.91943080004 0.0905560297858 -0.382683432365)
	I89 : dAve : 	(-0.120565919754 0.0365732719135 -0.0490873852123) : omega : 	0.138840091817 : d : 	(-0.884097590017 0.268188071917 -0.382683432365)
	I90 : dAve : 	(-0.111114188018 0.059391770858 -0.0490873852123) : omega : 	0.138840091817 : d : 	(-0.814789005418 0.435513796846 -0.382683432365)
	I91 : dAve : 	(-0.0973924003507 0.0799278773557 -0.0490873852123) : omega : 	0.138840091817 : d : 	(-0.714168536279 0.586102970801 -0.382683432365)
	I92 : dAve : 	(-0.0799278773557 0.0973924003507 -0.0490873852123) : omega : 	0.138840091817 : d : 	(-0.586102970801 0.714168536279 -0.382683432365)
	I93 : dAve : 	(-0.059391770858 0.111114188018 -0.0490873852123) : omega : 	0.138840091817 : d : 	(-0.435513796846 0.814789005418 -0.382683432365)
	I94 : dAve : 	(-0.0365732719135 0.120565919754 -0.0490873852123) : omega : 	0.138840091817 : d : 	(-0.268188071917 0.884097590017 -0.382683432365)
	I95 : dAve : 	(-0.0123492826399 0.125384370808 -0.0490873852123) : omega : 	0.138840091817 : d : 	(-0.0905560297858 0.91943080004 -0.382683432365)
	I96 : dAve : 	(0.00274192284156 0.0278392098 -0.0490873852123) : omega : 	0.0575094490319 : d : 	(0.0375095356919 0.38084070704 -0.923879532511)
	I97 : dAve : 	(0.00812039796756 0.0267693645798 -0.0490873852123) : omega : 	0.0575094490319 : d : 	(0.111087136655 0.366205212247 -0.923879532511)
	I98 : dAve : 	(0.0131868107536 0.0246707876912 -0.0490873852123) : omega : 	0.0575094490319 : d : 	(0.180395721254 0.337496656517 -0.923879532511)
	I99 : dAve : 	(0.0177464617977 0.0216241262672 -0.0490873852123) : omega : 	0.0575094490319 : d : 	(0.242771799453 0.295818293547 -0.923879532511)
	I100 : dAve : 	(0.0216241262672 0.0177464617977 -0.0490873852123) : omega : 	0.0575094490319 : d : 	(0.295818293547 0.242771799453 -0.923879532511)
	I101 : dAve : 	(0.0246707876912 0.0131868107536 -0.0490873852123) : omega : 	0.0575094490319 : d : 	(0.337496656517 0.180395721254 -0.923879532511)
	I102 : dAve : 	(0.0267693645798 0.00812039796756 -0.0490873852123) : omega : 	0.0575094490319 : d : 	(0.366205212247 0.111087136655 -0.923879532511)
	I103 : dAve : 	(0.0278392098 0.00274192284156 -0.0490873852123) : omega : 	0.0575094490319 : d : 	(0.38084070704 0.0375095356919 -0.923879532511)
	I104 : dAve : 	(0.0278392098 -0.00274192284156 -0.0490873852123) : omega : 	0.0575094490319 : d : 	(0.38084070704 -0.0375095356919 -0.923879532511)
	I105 : dAve : 	(0.0267693645798 -0.00812039796756 -0.0490873852123) : omega : 	0.0575094490319 : d : 	(0.366205212247 -0.111087136655 -0.923879532511)
	I106 : dAve : 	(0.0246707876912 -0.0131868107536 -0.0490873852123) : omega : 	0.0575094490319 : d : 	(0.337496656517 -0.180395721254 -0.923879532511)
	I107 : dAve : 	(0.0216241262672 -0.0177464617977 -0.0490873852123) : omega : 	0.0575094490319 : d : 	(0.295818293547 -0.242771799453 -0.923879532511)
	I108 : dAve : 	(0.0177464617977 -0.0216241262672 -0.0490873852123) : omega : 	0.0575094490319 : d : 	(0.242771799453 -0.295818293547 -0.923879532511)
	I109 : dAve : 	(0.0131868107536 -0.0246707876912 -0.0490873852123) : omega : 	0.0575094490319 : d : 	(0.180395721254 -0.337496656517 -0.923879532511)
	I110 : dAve : 	(0.00812039796756 -0.0267693645798 -0.0490873852123) : omega : 	0.0575094490319 : d : 	(0.111087136655 -0.366205212247 -0.923879532511)
	I111 : dAve : 	(0.00274192284156 -0.0278392098 -0.0490873852123) : omega : 	0.0575094490319 : d : 	(0.0375095356919 -0.38084070704 -0.923879532511)
	I112 : dAve : 	(-0.00274192284156 -0.0278392098 -0.0490873852123) : omega : 	0.0575094490319 : d : 	(-0.0375095356919 -0.38084070704 -0.923879532511)
	I113 : dAve : 	(-0.00812039796756 -0.0267693645798 -0.0490873852123) : omega : 	0.0575094490319 : d : 	(-0.111087136655 -0.366205212247 -0.923879532511)
	I114 : dAve : 	(-0.0131868107536 -0.0246707876912 -0.0490873852123) : omega : 	0.0575094490319 : d : 	(-0.180395721254 -0.337496656517 -0.923879532511)
	I115 : dAve : 	(-0.0177464617977 -0.0216241262672 -0.0490873852123) : omega : 	0.0575094490319 : d : 	(-0.242771799453 -0.295818293547 -0.923879532511)
	I116 : dAve : 	(-0.0216241262672 -0.0177464617977 -0.0490873852123) : omega : 	0.0575094490319 : d : 	(-0.295818293547 -0.242771799453 -0.923879532511)
	I117 : dAve : 	(-0.0246707876912 -0.0131868107536 -0.0490873852123) : omega : 	0.0575094490319 : d : 	(-0.337496656517 -0.180395721254 -0.923879532511)
	I118 : dAve : 	(-0.0267693645798 -0.00812039796756 -0.0490873852123) : omega : 	0.0575094490319 : d : 	(-0.366205212247 -0.111087136655 -0.923879532511)
	I119 : dAve : 	(-0.0278392098 -0.00274192284156 -0.0490873852123) : omega : 	0.0575094490319 : d : 	(-0.38084070704 -0.0375095356919 -0.923879532511)
	I120 : dAve : 	(-0.0278392098 0.00274192284156 -0.0490873852123) : omega : 	0.0575094490319 : d : 	(-0.38084070704 0.0375095356919 -0.923879532511)
	I121 : dAve : 	(-0.0267693645798 0.00812039796756 -0.0490873852123) : omega : 	0.0575094490319 : d : 	(-0.366205212247 0.111087136655 -0.923879532511)
	I122 : dAve : 	(-0.0246707876912 0.0131868107536 -0.0490873852123) : omega : 	0.0575094490319 : d : 	(-0.337496656517 0.180395721254 -0.923879532511)
	I123 : dAve : 	(-0.0216241262672 0.0177464617977 -0.0490873852123) : omega : 	0.0575094490319 : d : 	(-0.295818293547 0.242771799453 -0.923879532511)
	I124 : dAve : 	(-0.0177464617977 0.0216241262672 -0.0490873852123) : omega : 	0.0575094490319 : d : 	(-0.242771799453 0.295818293547 -0.923879532511)
	I125 : dAve : 	(-0.0131868107536 0.0246707876912 -0.0490873852123) : omega : 	0.0575094490319 : d : 	(-0.180395721254 0.337496656517 -0.923879532511)
	I126 : dAve : 	(-0.00812039796756 0.0267693645798 -0.0490873852123) : omega : 	0.0575094490319 : d : 	(-0.111087136655 0.366205212247 -0.923879532511)
	I127 : dAve : 	(-0.00274192284156 0.0278392098 -0.0490873852123) : omega : 	0.0575094490319 : d : 	(-0.0375095356919 0.38084070704 -0.923879532511)
Total omega : 12.5663706144

Courant Number mean: 0 max: 0

Starting time loop

Sampled set:
    data -> csv

Sampled set:
    data -> csv

Sampled surface:
    yNormal -> ensight
        sampledCuttingPlane: yNormal : plane:(0 1 0) (0 0 0) offsets:(0)

Sampled surface:
    zNormal -> ensight
        sampledCuttingPlane: zNormal : plane:(0 0 1) (0 0 0) offsets:(0)

Sampled surface:
    patchAll -> ensight
        sampledPatch: patchAll : patches:(".*WW.*")

deltaT = 1
Time = 1

PIMPLE: iteration 1
Radiation solver iter: 0
DILUPBiCGStab:  Solving for ILambda_0_0, Initial residual = 1, Final residual = 6.61149159189e-71, No Iterations 3
DILUPBiCGStab:  Solving for ILambda_1_0, Initial residual = 1, Final residual = 1.17464755226e-73, No Iterations 3
DILUPBiCGStab:  Solving for ILambda_2_0, Initial residual = 1, Final residual = 4.4597139334e-72, No Iterations 3
DILUPBiCGStab:  Solving for ILambda_3_0, Initial residual = 1, Final residual = 5.41579817745e-71, No Iterations 3
DILUPBiCGStab:  Solving for ILambda_4_0, Initial residual = 1, Final residual = 8.40139290641e-72, No Iterations 3
DILUPBiCGStab:  Solving for ILambda_5_0, Initial residual = 1, Final residual = 1.55152700654e-70, No Iterations 3
DILUPBiCGStab:  Solving for ILambda_6_0, Initial residual = 1, Final residual = 2.8711340448e-73, No Iterations 3
DILUPBiCGStab:  Solving for ILambda_7_0, Initial residual = 1, Final residual = 2.1899427174e-72, No Iterations 3
DILUPBiCGStab:  Solving for ILambda_8_0, Initial residual = 1, Final residual = 7.5918266302e-61, No Iterations 56
DILUPBiCGStab:  Solving for ILambda_9_0, Initial residual = 1, Final residual = 7.49460905185e-62, No Iterations 88
DILUPBiCGStab:  Solving for ILambda_10_0, Initial residual = 1, Final residual = 5.69248077992e-61, No Iterations 108
DILUPBiCGStab:  Solving for ILambda_11_0, Initial residual = 1, Final residual = 7.04905126921e-61, No Iterations 110
DILUPBiCGStab:  Solving for ILambda_12_0, Initial residual = 1, Final residual = 6.74359900453e-61, No Iterations 112
DILUPBiCGStab:  Solving for ILambda_13_0, Initial residual = 1, Final residual = 5.46601508914e-62, No Iterations 107
DILUPBiCGStab:  Solving for ILambda_14_0, Initial residual = 1, Final residual = 1.25114463851e-61, No Iterations 88
DILUPBiCGStab:  Solving for ILambda_15_0, Initial residual = 1, Final residual = 6.90347040503e-61, No Iterations 55
DILUPBiCGStab:  Solving for ILambda_16_0, Initial residual = 1, Final residual = 3.27857505748e-61, No Iterations 33
DILUPBiCGStab:  Solving for ILambda_17_0, Initial residual = 1, Final residual = 1.01863956367e-61, No Iterations 33
DILUPBiCGStab:  Solving for ILambda_18_0, Initial residual = 1, Final residual = 3.14364739075e-61, No Iterations 33
DILUPBiCGStab:  Solving for ILambda_19_0, Initial residual = 1, Final residual = 6.07775432011e-61, No Iterations 34
DILUPBiCGStab:  Solving for ILambda_20_0, Initial residual = 1, Final residual = 9.6176538055e-61, No Iterations 34
DILUPBiCGStab:  Solving for ILambda_21_0, Initial residual = 1, Final residual = 2.85194938763e-62, No Iterations 34
DILUPBiCGStab:  Solving for ILambda_22_0, Initial residual = 1, Final residual = 6.54137251515e-62, No Iterations 34
DILUPBiCGStab:  Solving for ILambda_23_0, Initial residual = 1, Final residual = 9.00620291043e-61, No Iterations 33
DILUPBiCGStab:  Solving for ILambda_24_0, Initial residual = 1, Final residual = 1.34975118315e-61, No Iterations 56
DILUPBiCGStab:  Solving for ILambda_25_0, Initial residual = 1, Final residual = 3.76479796332e-61, No Iterations 88
DILUPBiCGStab:  Solving for ILambda_26_0, Initial residual = 1, Final residual = 4.6201824728e-61, No Iterations 105
DILUPBiCGStab:  Solving for ILambda_27_0, Initial residual = 1, Final residual = 4.38433666201e-61, No Iterations 113
DILUPBiCGStab:  Solving for ILambda_28_0, Initial residual = 1, Final residual = 7.92616794994e-61, No Iterations 111
DILUPBiCGStab:  Solving for ILambda_29_0, Initial residual = 1, Final residual = 5.83942687045e-61, No Iterations 106
DILUPBiCGStab:  Solving for ILambda_30_0, Initial residual = 1, Final residual = 8.26122060492e-61, No Iterations 87
DILUPBiCGStab:  Solving for ILambda_31_0, Initial residual = 1, Final residual = 9.022919551e-62, No Iterations 57
DILUPBiCGStab:  Solving for ILambda_32_0, Initial residual = 1, Final residual = 8.35711870974e-74, No Iterations 3
DILUPBiCGStab:  Solving for ILambda_33_0, Initial residual = 1, Final residual = 2.08060186375e-69, No Iterations 3
DILUPBiCGStab:  Solving for ILambda_34_0, Initial residual = 1, Final residual = 4.59814136753e-69, No Iterations 3
DILUPBiCGStab:  Solving for ILambda_35_0, Initial residual = 1, Final residual = 5.52644961874e-75, No Iterations 3
DILUPBiCGStab:  Solving for ILambda_36_0, Initial residual = 1, Final residual = 2.48910239003e-73, No Iterations 3
DILUPBiCGStab:  Solving for ILambda_37_0, Initial residual = 1, Final residual = 6.50125582001e-72, No Iterations 3
DILUPBiCGStab:  Solving for ILambda_38_0, Initial residual = 1, Final residual = 6.65143432256e-71, No Iterations 3
DILUPBiCGStab:  Solving for ILambda_39_0, Initial residual = 1, Final residual = 1.28911110138e-70, No Iterations 3
DILUPBiCGStab:  Solving for ILambda_40_0, Initial residual = 1, Final residual = 5.71259322668e-61, No Iterations 57
DILUPBiCGStab:  Solving for ILambda_41_0, Initial residual = 1, Final residual = 3.22065322989e-61, No Iterations 86
DILUPBiCGStab:  Solving for ILambda_42_0, Initial residual = 1, Final residual = 3.83212163757e-61, No Iterations 105
DILUPBiCGStab:  Solving for ILambda_43_0, Initial residual = 1, Final residual = 4.32364148547e-61, No Iterations 113
DILUPBiCGStab:  Solving for ILambda_44_0, Initial residual = 1, Final residual = 7.07327503274e-61, No Iterations 116
DILUPBiCGStab:  Solving for ILambda_45_0, Initial residual = 1, Final residual = 4.45725509933e-61, No Iterations 105
DILUPBiCGStab:  Solving for ILambda_46_0, Initial residual = 1, Final residual = 6.58189846727e-62, No Iterations 88
DILUPBiCGStab:  Solving for ILambda_47_0, Initial residual = 1, Final residual = 7.87298227624e-61, No Iterations 54
DILUPBiCGStab:  Solving for ILambda_48_0, Initial residual = 1, Final residual = 1.37890240728e-61, No Iterations 39
DILUPBiCGStab:  Solving for ILambda_49_0, Initial residual = 1, Final residual = 5.48334178958e-62, No Iterations 41
DILUPBiCGStab:  Solving for ILambda_50_0, Initial residual = 1, Final residual = 2.36292292923e-61, No Iterations 43
DILUPBiCGStab:  Solving for ILambda_51_0, Initial residual = 1, Final residual = 6.48735782281e-61, No Iterations 43
DILUPBiCGStab:  Solving for ILambda_52_0, Initial residual = 1, Final residual = 4.61313054155e-61, No Iterations 42
DILUPBiCGStab:  Solving for ILambda_53_0, Initial residual = 1, Final residual = 1.75160469854e-61, No Iterations 41
DILUPBiCGStab:  Solving for ILambda_54_0, Initial residual = 1, Final residual = 7.49037191786e-63, No Iterations 41
DILUPBiCGStab:  Solving for ILambda_55_0, Initial residual = 1, Final residual = 5.51471663715e-62, No Iterations 41
DILUPBiCGStab:  Solving for ILambda_56_0, Initial residual = 1, Final residual = 6.34183918532e-61, No Iterations 55
DILUPBiCGStab:  Solving for ILambda_57_0, Initial residual = 1, Final residual = 7.67416499548e-61, No Iterations 87
DILUPBiCGStab:  Solving for ILambda_58_0, Initial residual = 1, Final residual = 4.76417200079e-62, No Iterations 105
DILUPBiCGStab:  Solving for ILambda_59_0, Initial residual = 1, Final residual = 4.85941778181e-61, No Iterations 113
DILUPBiCGStab:  Solving for ILambda_60_0, Initial residual = 1, Final residual = 2.05486371842e-61, No Iterations 114
DILUPBiCGStab:  Solving for ILambda_61_0, Initial residual = 1, Final residual = 1.38941438759e-61, No Iterations 106
DILUPBiCGStab:  Solving for ILambda_62_0, Initial residual = 1, Final residual = 2.99619455056e-61, No Iterations 88
DILUPBiCGStab:  Solving for ILambda_63_0, Initial residual = 1, Final residual = 5.09746032241e-62, No Iterations 58
DILUPBiCGStab:  Solving for ILambda_64_0, Initial residual = 1, Final residual = 3.31922217168e-61, No Iterations 41
DILUPBiCGStab:  Solving for ILambda_65_0, Initial residual = 1, Final residual = 3.8170778298e-62, No Iterations 44
DILUPBiCGStab:  Solving for ILambda_66_0, Initial residual = 1, Final residual = 1.9587125945e-62, No Iterations 43
DILUPBiCGStab:  Solving for ILambda_67_0, Initial residual = 1, Final residual = 1.90770076348e-61, No Iterations 48
DILUPBiCGStab:  Solving for ILambda_68_0, Initial residual = 1, Final residual = 6.49712260329e-61, No Iterations 48
DILUPBiCGStab:  Solving for ILambda_69_0, Initial residual = 1, Final residual = 6.12637222091e-61, No Iterations 42
DILUPBiCGStab:  Solving for ILambda_70_0, Initial residual = 1, Final residual = 3.80458072843e-61, No Iterations 44
DILUPBiCGStab:  Solving for ILambda_71_0, Initial residual = 1, Final residual = 1.64988396165e-61, No Iterations 40
DILUPBiCGStab:  Solving for ILambda_72_0, Initial residual = 1, Final residual = 4.56927229521e-61, No Iterations 55
DILUPBiCGStab:  Solving for ILambda_73_0, Initial residual = 1, Final residual = 2.25219212235e-61, No Iterations 85
DILUPBiCGStab:  Solving for ILambda_74_0, Initial residual = 1, Final residual = 4.91624473171e-61, No Iterations 103
DILUPBiCGStab:  Solving for ILambda_75_0, Initial residual = 1, Final residual = 3.58356394646e-61, No Iterations 112
DILUPBiCGStab:  Solving for ILambda_76_0, Initial residual = 1, Final residual = 9.18178657167e-61, No Iterations 113
DILUPBiCGStab:  Solving for ILambda_77_0, Initial residual = 1, Final residual = 5.42147940244e-61, No Iterations 106
DILUPBiCGStab:  Solving for ILambda_78_0, Initial residual = 1, Final residual = 5.88011073413e-61, No Iterations 87
DILUPBiCGStab:  Solving for ILambda_79_0, Initial residual = 1, Final residual = 6.07101492617e-61, No Iterations 57
DILUPBiCGStab:  Solving for ILambda_80_0, Initial residual = 1, Final residual = 1.8659674304e-74, No Iterations 3
DILUPBiCGStab:  Solving for ILambda_81_0, Initial residual = 1, Final residual = 1.63787941474e-70, No Iterations 3
DILUPBiCGStab:  Solving for ILambda_82_0, Initial residual = 1, Final residual = 3.28651753738e-69, No Iterations 3
DILUPBiCGStab:  Solving for ILambda_83_0, Initial residual = 1, Final residual = 6.87625235035e-71, No Iterations 3
DILUPBiCGStab:  Solving for ILambda_84_0, Initial residual = 1, Final residual = 6.0411077112e-71, No Iterations 3
DILUPBiCGStab:  Solving for ILambda_85_0, Initial residual = 1, Final residual = 2.97862834629e-75, No Iterations 3
DILUPBiCGStab:  Solving for ILambda_86_0, Initial residual = 1, Final residual = 7.46877507406e-62, No Iterations 3
DILUPBiCGStab:  Solving for ILambda_87_0, Initial residual = 1, Final residual = 4.51148019239e-75, No Iterations 3
DILUPBiCGStab:  Solving for ILambda_88_0, Initial residual = 1, Final residual = 8.7329224948e-62, No Iterations 58
DILUPBiCGStab:  Solving for ILambda_89_0, Initial residual = 1, Final residual = 2.84385562526e-61, No Iterations 89
DILUPBiCGStab:  Solving for ILambda_90_0, Initial residual = 1, Final residual = 6.43077317257e-61, No Iterations 107
DILUPBiCGStab:  Solving for ILambda_91_0, Initial residual = 1, Final residual = 3.32323876526e-61, No Iterations 111
DILUPBiCGStab:  Solving for ILambda_92_0, Initial residual = 1, Final residual = 4.86783866507e-61, No Iterations 113
DILUPBiCGStab:  Solving for ILambda_93_0, Initial residual = 1, Final residual = 7.35451624212e-61, No Iterations 105
DILUPBiCGStab:  Solving for ILambda_94_0, Initial residual = 1, Final residual = 6.3584403286e-61, No Iterations 84
DILUPBiCGStab:  Solving for ILambda_95_0, Initial residual = 1, Final residual = 1.33633504178e-61, No Iterations 55
DILUPBiCGStab:  Solving for ILambda_96_0, Initial residual = 1, Final residual = 1.87274919465e-61, No Iterations 40
DILUPBiCGStab:  Solving for ILambda_97_0, Initial residual = 1, Final residual = 9.17478762114e-62, No Iterations 43
DILUPBiCGStab:  Solving for ILambda_98_0, Initial residual = 1, Final residual = 2.8524039839e-61, No Iterations 46
DILUPBiCGStab:  Solving for ILambda_99_0, Initial residual = 1, Final residual = 1.07673898632e-61, No Iterations 45
DILUPBiCGStab:  Solving for ILambda_100_0, Initial residual = 1, Final residual = 1.68933730745e-62, No Iterations 41
DILUPBiCGStab:  Solving for ILambda_101_0, Initial residual = 1, Final residual = 3.90427369662e-61, No Iterations 41
DILUPBiCGStab:  Solving for ILambda_102_0, Initial residual = 1, Final residual = 4.58678059844e-62, No Iterations 42
DILUPBiCGStab:  Solving for ILambda_103_0, Initial residual = 1, Final residual = 5.43258241277e-62, No Iterations 39
DILUPBiCGStab:  Solving for ILambda_104_0, Initial residual = 1, Final residual = 4.32593749607e-61, No Iterations 55
DILUPBiCGStab:  Solving for ILambda_105_0, Initial residual = 1, Final residual = 9.15861385009e-61, No Iterations 87
DILUPBiCGStab:  Solving for ILambda_106_0, Initial residual = 1, Final residual = 6.73153429373e-61, No Iterations 104
DILUPBiCGStab:  Solving for ILambda_107_0, Initial residual = 1, Final residual = 4.77262827269e-61, No Iterations 109
DILUPBiCGStab:  Solving for ILambda_108_0, Initial residual = 1, Final residual = 6.67317279373e-61, No Iterations 112
DILUPBiCGStab:  Solving for ILambda_109_0, Initial residual = 1, Final residual = 3.61356967316e-61, No Iterations 108
DILUPBiCGStab:  Solving for ILambda_110_0, Initial residual = 1, Final residual = 2.53989686162e-61, No Iterations 89
DILUPBiCGStab:  Solving for ILambda_111_0, Initial residual = 1, Final residual = 1.58971767286e-61, No Iterations 57
DILUPBiCGStab:  Solving for ILambda_112_0, Initial residual = 1, Final residual = 1.01806696566e-74, No Iterations 3
DILUPBiCGStab:  Solving for ILambda_113_0, Initial residual = 1, Final residual = 1.32742497707e-63, No Iterations 3
DILUPBiCGStab:  Solving for ILambda_114_0, Initial residual = 1, Final residual = 2.36304512335e-72, No Iterations 3
DILUPBiCGStab:  Solving for ILambda_115_0, Initial residual = 1, Final residual = 1.253531813e-61, No Iterations 3
DILUPBiCGStab:  Solving for ILambda_116_0, Initial residual = 1, Final residual = 1.78248522214e-61, No Iterations 3
DILUPBiCGStab:  Solving for ILambda_117_0, Initial residual = 1, Final residual = 1.27813103308e-61, No Iterations 3
DILUPBiCGStab:  Solving for ILambda_118_0, Initial residual = 1, Final residual = 4.31578609433e-61, No Iterations 3
DILUPBiCGStab:  Solving for ILambda_119_0, Initial residual = 1, Final residual = 3.57950038477e-63, No Iterations 3
DILUPBiCGStab:  Solving for ILambda_120_0, Initial residual = 1, Final residual = 7.19501190011e-61, No Iterations 57
DILUPBiCGStab:  Solving for ILambda_121_0, Initial residual = 1, Final residual = 4.09355204008e-61, No Iterations 89
DILUPBiCGStab:  Solving for ILambda_122_0, Initial residual = 1, Final residual = 8.37232844234e-61, No Iterations 103
DILUPBiCGStab:  Solving for ILambda_123_0, Initial residual = 1, Final residual = 7.1089869197e-61, No Iterations 111
DILUPBiCGStab:  Solving for ILambda_124_0, Initial residual = 1, Final residual = 4.02672525942e-61, No Iterations 110
DILUPBiCGStab:  Solving for ILambda_125_0, Initial residual = 1, Final residual = 1.81704211032e-61, No Iterations 105
DILUPBiCGStab:  Solving for ILambda_126_0, Initial residual = 1, Final residual = 3.986185644e-61, No Iterations 86
DILUPBiCGStab:  Solving for ILambda_127_0, Initial residual = 1, Final residual = 2.57286314145e-61, No Iterations 55
Radiation solver iter: 1
DILUPBiCGStab:  Solving for ILambda_0_0, Initial residual = 1.64392949316e-16, Final residual = 2.13576501901e-61, No Iterations 2
DILUPBiCGStab:  Solving for ILambda_1_0, Initial residual = 1.72245423268e-16, Final residual = 4.12579780285e-61, No Iterations 2
DILUPBiCGStab:  Solving for ILambda_2_0, Initial residual = 1.7557500909e-16, Final residual = 3.6501115124e-61, No Iterations 2
DILUPBiCGStab:  Solving for ILambda_3_0, Initial residual = 1.87906748053e-16, Final residual = 8.02887932428e-62, No Iterations 2
DILUPBiCGStab:  Solving for ILambda_4_0, Initial residual = 1.87494129575e-16, Final residual = 3.44792997548e-61, No Iterations 2
DILUPBiCGStab:  Solving for ILambda_5_0, Initial residual = 1.94681398662e-16, Final residual = 1.13948408143e-61, No Iterations 2
DILUPBiCGStab:  Solving for ILambda_6_0, Initial residual = 1.9683262024e-16, Final residual = 2.20895013088e-75, No Iterations 2
DILUPBiCGStab:  Solving for ILambda_7_0, Initial residual = 1.79979864224e-16, Final residual = 2.53372439852e-61, No Iterations 2
DILUPBiCGStab:  Solving for ILambda_8_0, Initial residual = 4.58011783286e-15, Final residual = 1.77098212908e-61, No Iterations 39
DILUPBiCGStab:  Solving for ILambda_9_0, Initial residual = 2.89026187998e-14, Final residual = 9.63386357937e-61, No Iterations 55
DILUPBiCGStab:  Solving for ILambda_10_0, Initial residual = 7.52564379584e-12, Final residual = 6.65350086858e-61, No Iterations 62
DILUPBiCGStab:  Solving for ILambda_11_0, Initial residual = 5.95241803361e-09, Final residual = 5.4355285066e-61, No Iterations 66
DILUPBiCGStab:  Solving for ILambda_12_0, Initial residual = 1.53262828985e-09, Final residual = 2.05929554193e-61, No Iterations 67
DILUPBiCGStab:  Solving for ILambda_13_0, Initial residual = 3.55164413201e-13, Final residual = 6.29134152688e-61, No Iterations 66
DILUPBiCGStab:  Solving for ILambda_14_0, Initial residual = 1.02228558725e-13, Final residual = 1.82632352939e-62, No Iterations 58
DILUPBiCGStab:  Solving for ILambda_15_0, Initial residual = 2.87628770037e-15, Final residual = 8.88020068788e-61, No Iterations 38
DILUPBiCGStab:  Solving for ILambda_16_0, Initial residual = 1.06757061516e-15, Final residual = 2.45452086375e-61, No Iterations 19
DILUPBiCGStab:  Solving for ILambda_17_0, Initial residual = 1.47286637219e-15, Final residual = 1.71979362861e-61, No Iterations 20
DILUPBiCGStab:  Solving for ILambda_18_0, Initial residual = 1.50276072479e-15, Final residual = 7.52001494551e-62, No Iterations 20
DILUPBiCGStab:  Solving for ILambda_19_0, Initial residual = 1.65689575259e-15, Final residual = 3.92383477935e-61, No Iterations 22
DILUPBiCGStab:  Solving for ILambda_20_0, Initial residual = 1.50580555924e-15, Final residual = 2.59488711141e-61, No Iterations 20
DILUPBiCGStab:  Solving for ILambda_21_0, Initial residual = 1.55912091792e-15, Final residual = 7.92604171632e-61, No Iterations 20
DILUPBiCGStab:  Solving for ILambda_22_0, Initial residual = 1.35481611459e-15, Final residual = 4.89481404153e-61, No Iterations 18
DILUPBiCGStab:  Solving for ILambda_23_0, Initial residual = 1.04765866944e-15, Final residual = 7.81700613381e-61, No Iterations 17
DILUPBiCGStab:  Solving for ILambda_24_0, Initial residual = 2.91220274358e-15, Final residual = 1.61362068269e-62, No Iterations 39
DILUPBiCGStab:  Solving for ILambda_25_0, Initial residual = 1.01879641246e-13, Final residual = 1.46588133609e-61, No Iterations 56
DILUPBiCGStab:  Solving for ILambda_26_0, Initial residual = 3.66001267897e-13, Final residual = 4.92876220695e-61, No Iterations 65
DILUPBiCGStab:  Solving for ILambda_27_0, Initial residual = 1.39191465452e-09, Final residual = 3.81324304653e-61, No Iterations 66
DILUPBiCGStab:  Solving for ILambda_28_0, Initial residual = 6.13404116846e-09, Final residual = 5.49946189475e-61, No Iterations 68
DILUPBiCGStab:  Solving for ILambda_29_0, Initial residual = 7.77849775624e-12, Final residual = 1.07522314244e-61, No Iterations 64
DILUPBiCGStab:  Solving for ILambda_30_0, Initial residual = 2.94973820236e-14, Final residual = 3.45443838023e-61, No Iterations 56
DILUPBiCGStab:  Solving for ILambda_31_0, Initial residual = 4.62982303412e-15, Final residual = 7.87027168224e-61, No Iterations 39
DILUPBiCGStab:  Solving for ILambda_32_0, Initial residual = 8.20507438942e-16, Final residual = 6.32223714467e-73, No Iterations 2
DILUPBiCGStab:  Solving for ILambda_33_0, Initial residual = 8.6241643276e-16, Final residual = 1.12101661383e-73, No Iterations 2
DILUPBiCGStab:  Solving for ILambda_34_0, Initial residual = 7.67722434263e-16, Final residual = 2.67135689984e-74, No Iterations 2
DILUPBiCGStab:  Solving for ILambda_35_0, Initial residual = 7.36674405744e-16, Final residual = 7.03816061837e-74, No Iterations 2
DILUPBiCGStab:  Solving for ILambda_36_0, Initial residual = 7.1738120911e-16, Final residual = 2.14436797385e-73, No Iterations 2
DILUPBiCGStab:  Solving for ILambda_37_0, Initial residual = 7.6671980465e-16, Final residual = 6.52167355855e-74, No Iterations 2
DILUPBiCGStab:  Solving for ILambda_38_0, Initial residual = 9.79210641455e-16, Final residual = 2.27371659934e-74, No Iterations 2
DILUPBiCGStab:  Solving for ILambda_39_0, Initial residual = 9.32897017738e-16, Final residual = 5.1357231687e-73, No Iterations 2
DILUPBiCGStab:  Solving for ILambda_40_0, Initial residual = 3.96820362177e-14, Final residual = 2.17703215125e-61, No Iterations 40
DILUPBiCGStab:  Solving for ILambda_41_0, Initial residual = 7.0736265471e-13, Final residual = 9.16334950197e-61, No Iterations 56
DILUPBiCGStab:  Solving for ILambda_42_0, Initial residual = 3.94512013657e-12, Final residual = 2.70166365237e-61, No Iterations 69
DILUPBiCGStab:  Solving for ILambda_43_0, Initial residual = 2.48927822674e-11, Final residual = 6.35218859625e-61, No Iterations 78
DILUPBiCGStab:  Solving for ILambda_44_0, Initial residual = 5.49612126686e-12, Final residual = 9.17924022985e-61, No Iterations 76
DILUPBiCGStab:  Solving for ILambda_45_0, Initial residual = 5.37567310231e-12, Final residual = 7.46184534248e-61, No Iterations 69
DILUPBiCGStab:  Solving for ILambda_46_0, Initial residual = 4.32116411853e-12, Final residual = 7.5107180915e-61, No Iterations 58
DILUPBiCGStab:  Solving for ILambda_47_0, Initial residual = 1.30107415611e-14, Final residual = 7.64238732091e-62, No Iterations 39
DILUPBiCGStab:  Solving for ILambda_48_0, Initial residual = 1.64705643239e-14, Final residual = 3.24630035378e-62, No Iterations 24
DILUPBiCGStab:  Solving for ILambda_49_0, Initial residual = 4.15284803327e-14, Final residual = 2.49685797587e-61, No Iterations 23
DILUPBiCGStab:  Solving for ILambda_50_0, Initial residual = 3.89039455937e-14, Final residual = 2.83730699323e-61, No Iterations 28
DILUPBiCGStab:  Solving for ILambda_51_0, Initial residual = 4.12788988898e-14, Final residual = 1.74890949346e-61, No Iterations 25
DILUPBiCGStab:  Solving for ILambda_52_0, Initial residual = 4.15593044885e-14, Final residual = 6.51565974978e-61, No Iterations 27
DILUPBiCGStab:  Solving for ILambda_53_0, Initial residual = 3.571677686e-14, Final residual = 3.43074951469e-61, No Iterations 24
DILUPBiCGStab:  Solving for ILambda_54_0, Initial residual = 3.75784143854e-14, Final residual = 1.46164316487e-62, No Iterations 26
DILUPBiCGStab:  Solving for ILambda_55_0, Initial residual = 1.49434280346e-14, Final residual = 2.85405754761e-61, No Iterations 24
DILUPBiCGStab:  Solving for ILambda_56_0, Initial residual = 1.30139856328e-14, Final residual = 5.33832141434e-61, No Iterations 39
DILUPBiCGStab:  Solving for ILambda_57_0, Initial residual = 4.33787427942e-12, Final residual = 2.97625332015e-61, No Iterations 58
DILUPBiCGStab:  Solving for ILambda_58_0, Initial residual = 5.40011525216e-12, Final residual = 5.253491194e-61, No Iterations 69
DILUPBiCGStab:  Solving for ILambda_59_0, Initial residual = 5.96706155742e-12, Final residual = 3.53346343813e-61, No Iterations 74
DILUPBiCGStab:  Solving for ILambda_60_0, Initial residual = 2.23877674131e-11, Final residual = 4.08552828147e-61, No Iterations 76
DILUPBiCGStab:  Solving for ILambda_61_0, Initial residual = 3.95637289475e-12, Final residual = 3.36633478886e-61, No Iterations 68
DILUPBiCGStab:  Solving for ILambda_62_0, Initial residual = 7.11880474257e-13, Final residual = 8.10220102248e-61, No Iterations 58
DILUPBiCGStab:  Solving for ILambda_63_0, Initial residual = 3.95546566184e-14, Final residual = 3.31661487035e-61, No Iterations 40
DILUPBiCGStab:  Solving for ILambda_64_0, Initial residual = 1.52670984687e-15, Final residual = 9.97029406421e-61, No Iterations 22
DILUPBiCGStab:  Solving for ILambda_65_0, Initial residual = 1.78220389999e-15, Final residual = 2.11375975421e-62, No Iterations 22
DILUPBiCGStab:  Solving for ILambda_66_0, Initial residual = 1.83539205818e-15, Final residual = 1.46636476391e-62, No Iterations 22
DILUPBiCGStab:  Solving for ILambda_67_0, Initial residual = 1.8537211356e-15, Final residual = 3.30987067398e-62, No Iterations 21
DILUPBiCGStab:  Solving for ILambda_68_0, Initial residual = 1.79272110132e-15, Final residual = 8.51381650183e-61, No Iterations 22
DILUPBiCGStab:  Solving for ILambda_69_0, Initial residual = 1.91059202278e-15, Final residual = 4.6976422715e-62, No Iterations 25
DILUPBiCGStab:  Solving for ILambda_70_0, Initial residual = 1.8836004861e-15, Final residual = 1.01904208978e-61, No Iterations 22
DILUPBiCGStab:  Solving for ILambda_71_0, Initial residual = 1.68989487938e-15, Final residual = 2.72287944127e-61, No Iterations 19
DILUPBiCGStab:  Solving for ILambda_72_0, Initial residual = 1.14530545794e-14, Final residual = 2.91185834738e-61, No Iterations 38
DILUPBiCGStab:  Solving for ILambda_73_0, Initial residual = 2.15696748995e-12, Final residual = 3.16436742077e-61, No Iterations 55
DILUPBiCGStab:  Solving for ILambda_74_0, Initial residual = 1.07091541286e-11, Final residual = 3.6369430031e-61, No Iterations 68
DILUPBiCGStab:  Solving for ILambda_75_0, Initial residual = 4.99928980289e-11, Final residual = 7.6095407564e-61, No Iterations 70
DILUPBiCGStab:  Solving for ILambda_76_0, Initial residual = 7.68774790303e-11, Final residual = 7.42385754018e-61, No Iterations 71
DILUPBiCGStab:  Solving for ILambda_77_0, Initial residual = 1.2683743566e-12, Final residual = 2.57329640835e-61, No Iterations 65
DILUPBiCGStab:  Solving for ILambda_78_0, Initial residual = 1.50250429133e-13, Final residual = 2.80266874404e-61, No Iterations 59
DILUPBiCGStab:  Solving for ILambda_79_0, Initial residual = 1.36926547763e-14, Final residual = 6.6266310364e-63, No Iterations 40
DILUPBiCGStab:  Solving for ILambda_80_0, Initial residual = 1.04500495057e-15, Final residual = 1.2394211231e-72, No Iterations 2
DILUPBiCGStab:  Solving for ILambda_81_0, Initial residual = 1.08324002087e-15, Final residual = 6.47616276463e-74, No Iterations 2
DILUPBiCGStab:  Solving for ILambda_82_0, Initial residual = 7.20811130281e-16, Final residual = 1.90702205273e-72, No Iterations 2
DILUPBiCGStab:  Solving for ILambda_83_0, Initial residual = 6.36754855492e-16, Final residual = 7.90892953125e-71, No Iterations 2
DILUPBiCGStab:  Solving for ILambda_84_0, Initial residual = 6.95775916645e-16, Final residual = 3.54841516027e-71, No Iterations 2
DILUPBiCGStab:  Solving for ILambda_85_0, Initial residual = 7.08009106251e-16, Final residual = 3.33679085566e-71, No Iterations 2
DILUPBiCGStab:  Solving for ILambda_86_0, Initial residual = 8.35689303916e-16, Final residual = 3.50767439287e-72, No Iterations 2
DILUPBiCGStab:  Solving for ILambda_87_0, Initial residual = 8.17037496574e-16, Final residual = 2.33379085772e-72, No Iterations 2
DILUPBiCGStab:  Solving for ILambda_88_0, Initial residual = 1.3349457858e-14, Final residual = 4.17283881774e-61, No Iterations 39
DILUPBiCGStab:  Solving for ILambda_89_0, Initial residual = 1.52479861839e-13, Final residual = 5.58686234969e-61, No Iterations 58
DILUPBiCGStab:  Solving for ILambda_90_0, Initial residual = 1.3132818841e-12, Final residual = 6.23528529735e-61, No Iterations 66
DILUPBiCGStab:  Solving for ILambda_91_0, Initial residual = 1.03028496834e-09, Final residual = 5.11722325042e-61, No Iterations 69
DILUPBiCGStab:  Solving for ILambda_92_0, Initial residual = 4.52092532087e-11, Final residual = 4.81485925418e-61, No Iterations 71
DILUPBiCGStab:  Solving for ILambda_93_0, Initial residual = 1.06514409392e-11, Final residual = 8.7139843109e-61, No Iterations 68
DILUPBiCGStab:  Solving for ILambda_94_0, Initial residual = 2.12066982974e-12, Final residual = 5.01722643201e-61, No Iterations 55
DILUPBiCGStab:  Solving for ILambda_95_0, Initial residual = 1.13827660605e-14, Final residual = 1.72089150688e-61, No Iterations 39
DILUPBiCGStab:  Solving for ILambda_96_0, Initial residual = 3.95116041134e-16, Final residual = 2.86369683521e-61, No Iterations 18
DILUPBiCGStab:  Solving for ILambda_97_0, Initial residual = 4.56869979636e-16, Final residual = 1.09771573191e-62, No Iterations 18
DILUPBiCGStab:  Solving for ILambda_98_0, Initial residual = 6.90184995977e-16, Final residual = 1.2452308649e-61, No Iterations 18
DILUPBiCGStab:  Solving for ILambda_99_0, Initial residual = 7.82210379865e-16, Final residual = 4.14574063845e-62, No Iterations 19
DILUPBiCGStab:  Solving for ILambda_100_0, Initial residual = 7.85904926391e-16, Final residual = 6.73387784447e-62, No Iterations 18
DILUPBiCGStab:  Solving for ILambda_101_0, Initial residual = 7.02138344802e-16, Final residual = 7.94116967728e-61, No Iterations 18
DILUPBiCGStab:  Solving for ILambda_102_0, Initial residual = 4.74731012108e-16, Final residual = 7.18994579864e-62, No Iterations 18
DILUPBiCGStab:  Solving for ILambda_103_0, Initial residual = 4.16819017024e-16, Final residual = 1.00130521397e-61, No Iterations 18
DILUPBiCGStab:  Solving for ILambda_104_0, Initial residual = 2.46768267749e-15, Final residual = 2.20317628491e-61, No Iterations 40
DILUPBiCGStab:  Solving for ILambda_105_0, Initial residual = 3.33549495126e-14, Final residual = 2.4116465533e-61, No Iterations 57
DILUPBiCGStab:  Solving for ILambda_106_0, Initial residual = 2.75135457293e-12, Final residual = 3.67825109155e-61, No Iterations 63
DILUPBiCGStab:  Solving for ILambda_107_0, Initial residual = 4.60841928387e-08, Final residual = 8.02818607667e-61, No Iterations 65
DILUPBiCGStab:  Solving for ILambda_108_0, Initial residual = 5.05951174895e-09, Final residual = 5.48735202298e-61, No Iterations 65
DILUPBiCGStab:  Solving for ILambda_109_0, Initial residual = 6.65533608422e-12, Final residual = 3.59444243302e-61, No Iterations 61
DILUPBiCGStab:  Solving for ILambda_110_0, Initial residual = 3.44188514133e-14, Final residual = 4.32977364342e-61, No Iterations 55
DILUPBiCGStab:  Solving for ILambda_111_0, Initial residual = 3.26202603054e-15, Final residual = 1.6504922899e-61, No Iterations 39
DILUPBiCGStab:  Solving for ILambda_112_0, Initial residual = 1.8627819309e-16, Final residual = 8.7829933758e-75, No Iterations 2
DILUPBiCGStab:  Solving for ILambda_113_0, Initial residual = 1.87524386167e-16, Final residual = 3.96939221617e-74, No Iterations 2
DILUPBiCGStab:  Solving for ILambda_114_0, Initial residual = 1.89670578027e-16, Final residual = 8.15045119996e-74, No Iterations 2
DILUPBiCGStab:  Solving for ILambda_115_0, Initial residual = 1.90047968955e-16, Final residual = 4.23718277524e-61, No Iterations 2
DILUPBiCGStab:  Solving for ILambda_116_0, Initial residual = 1.88583065337e-16, Final residual = 2.09924673679e-75, No Iterations 2
DILUPBiCGStab:  Solving for ILambda_117_0, Initial residual = 1.6889939494e-16, Final residual = 2.03227430896e-73, No Iterations 2
DILUPBiCGStab:  Solving for ILambda_118_0, Initial residual = 1.7063514874e-16, Final residual = 5.2456977691e-61, No Iterations 2
DILUPBiCGStab:  Solving for ILambda_119_0, Initial residual = 1.62509824518e-16, Final residual = 7.83028153729e-62, No Iterations 2
DILUPBiCGStab:  Solving for ILambda_120_0, Initial residual = 3.21371040687e-15, Final residual = 6.76229687295e-61, No Iterations 39
DILUPBiCGStab:  Solving for ILambda_121_0, Initial residual = 3.60574902881e-14, Final residual = 6.52286098998e-61, No Iterations 55
DILUPBiCGStab:  Solving for ILambda_122_0, Initial residual = 6.65970644042e-12, Final residual = 4.5172264574e-61, No Iterations 63
DILUPBiCGStab:  Solving for ILambda_123_0, Initial residual = 1.63625547351e-07, Final residual = 6.6041975162e-61, No Iterations 65
DILUPBiCGStab:  Solving for ILambda_124_0, Initial residual = 4.35873528596e-08, Final residual = 9.90220936559e-61, No Iterations 64
DILUPBiCGStab:  Solving for ILambda_125_0, Initial residual = 2.74900197102e-12, Final residual = 9.96821797021e-61, No Iterations 61
DILUPBiCGStab:  Solving for ILambda_126_0, Initial residual = 3.36184556109e-14, Final residual = 3.63583166384e-61, No Iterations 57
DILUPBiCGStab:  Solving for ILambda_127_0, Initial residual = 2.47152981862e-15, Final residual = 3.92318404536e-62, No Iterations 40
Radiation solver iter: 2
DILUPBiCGStab:  Solving for ILambda_11_0, Initial residual = 4.09074662901e-16, Final residual = 1.14199254167e-61, No Iterations 74
DILUPBiCGStab:  Solving for ILambda_12_0, Initial residual = 3.69259188733e-16, Final residual = 6.92596487706e-61, No Iterations 75
DILUPBiCGStab:  Solving for ILambda_27_0, Initial residual = 3.73177205102e-16, Final residual = 3.41802589643e-61, No Iterations 76
DILUPBiCGStab:  Solving for ILambda_28_0, Initial residual = 4.13825774615e-16, Final residual = 6.42755298538e-61, No Iterations 73
DILUPBiCGStab:  Solving for ILambda_91_0, Initial residual = 1.62082066131e-15, Final residual = 3.18533132435e-61, No Iterations 74
DILUPBiCGStab:  Solving for ILambda_107_0, Initial residual = 3.84013444314e-16, Final residual = 6.88958514047e-61, No Iterations 73
DILUPBiCGStab:  Solving for ILambda_108_0, Initial residual = 3.82517424811e-16, Final residual = 2.1503825853e-61, No Iterations 72
DILUPBiCGStab:  Solving for ILambda_123_0, Initial residual = 3.92084273911e-16, Final residual = 3.83064313269e-61, No Iterations 76
DILUPBiCGStab:  Solving for ILambda_124_0, Initial residual = 3.81051468497e-16, Final residual = 7.69898374462e-61, No Iterations 77
min/max(T) = 1000, 1000
PIMPLE: iteration 2
Radiation solver iter: 0
DILUPBiCGStab:  Solving for ILambda_0_0, Initial residual = 1.65806943082e-16, Final residual = 5.35549953751e-61, No Iterations 2
DILUPBiCGStab:  Solving for ILambda_1_0, Initial residual = 1.70535572278e-16, Final residual = 6.76622897891e-75, No Iterations 2
DILUPBiCGStab:  Solving for ILambda_2_0, Initial residual = 1.67643696998e-16, Final residual = 7.19795979199e-61, No Iterations 2
DILUPBiCGStab:  Solving for ILambda_3_0, Initial residual = 1.87786830489e-16, Final residual = 2.3121346938e-61, No Iterations 2
DILUPBiCGStab:  Solving for ILambda_4_0, Initial residual = 1.88658902311e-16, Final residual = 8.00920238197e-61, No Iterations 2
DILUPBiCGStab:  Solving for ILambda_5_0, Initial residual = 1.8410957282e-16, Final residual = 3.23727756304e-61, No Iterations 2
DILUPBiCGStab:  Solving for ILambda_6_0, Initial residual = 1.96114791954e-16, Final residual = 7.18387842933e-61, No Iterations 2
DILUPBiCGStab:  Solving for ILambda_7_0, Initial residual = 1.7949694633e-16, Final residual = 5.6553887729e-62, No Iterations 2
DILUPBiCGStab:  Solving for ILambda_8_0, Initial residual = 2.28996368568e-16, Final residual = 1.81767055061e-61, No Iterations 39
DILUPBiCGStab:  Solving for ILambda_9_0, Initial residual = 2.96238731776e-16, Final residual = 2.99674474273e-61, No Iterations 57
DILUPBiCGStab:  Solving for ILambda_10_0, Initial residual = 3.47459413108e-16, Final residual = 7.40351118486e-61, No Iterations 68
DILUPBiCGStab:  Solving for ILambda_11_0, Initial residual = 3.56825196249e-16, Final residual = 1.03208230525e-61, No Iterations 76
DILUPBiCGStab:  Solving for ILambda_12_0, Initial residual = 2.60344175468e-16, Final residual = 2.70514891184e-61, No Iterations 74
DILUPBiCGStab:  Solving for ILambda_13_0, Initial residual = 3.68742127024e-16, Final residual = 5.42915220859e-61, No Iterations 70
DILUPBiCGStab:  Solving for ILambda_14_0, Initial residual = 3.43665955514e-16, Final residual = 6.02774840259e-61, No Iterations 56
DILUPBiCGStab:  Solving for ILambda_15_0, Initial residual = 2.38358285649e-16, Final residual = 4.78843679028e-62, No Iterations 38
DILUPBiCGStab:  Solving for ILambda_16_0, Initial residual = 1.81573445788e-16, Final residual = 2.09281801107e-61, No Iterations 18
DILUPBiCGStab:  Solving for ILambda_17_0, Initial residual = 1.90404014422e-16, Final residual = 5.08806633111e-61, No Iterations 18
DILUPBiCGStab:  Solving for ILambda_18_0, Initial residual = 1.94229781347e-16, Final residual = 2.1288986178e-61, No Iterations 19
DILUPBiCGStab:  Solving for ILambda_19_0, Initial residual = 1.89535580404e-16, Final residual = 1.36417702554e-62, No Iterations 19
DILUPBiCGStab:  Solving for ILambda_20_0, Initial residual = 1.86127645242e-16, Final residual = 5.08188756219e-61, No Iterations 19
DILUPBiCGStab:  Solving for ILambda_21_0, Initial residual = 1.72661767101e-16, Final residual = 5.85573570394e-61, No Iterations 18
DILUPBiCGStab:  Solving for ILambda_22_0, Initial residual = 1.72422948491e-16, Final residual = 1.44226643692e-61, No Iterations 19
DILUPBiCGStab:  Solving for ILambda_23_0, Initial residual = 1.65512937146e-16, Final residual = 3.46464450205e-61, No Iterations 18
DILUPBiCGStab:  Solving for ILambda_24_0, Initial residual = 2.33983876399e-16, Final residual = 2.82621421861e-61, No Iterations 41
DILUPBiCGStab:  Solving for ILambda_25_0, Initial residual = 3.29431569905e-16, Final residual = 5.6347584176e-61, No Iterations 61
DILUPBiCGStab:  Solving for ILambda_26_0, Initial residual = 3.63443464983e-16, Final residual = 2.92720060764e-61, No Iterations 67
DILUPBiCGStab:  Solving for ILambda_27_0, Initial residual = 3.17991340131e-16, Final residual = 4.98400648747e-62, No Iterations 77
DILUPBiCGStab:  Solving for ILambda_28_0, Initial residual = 3.43724539773e-16, Final residual = 6.49931045547e-61, No Iterations 76
DILUPBiCGStab:  Solving for ILambda_29_0, Initial residual = 3.53449591001e-16, Final residual = 2.1281980605e-61, No Iterations 70
DILUPBiCGStab:  Solving for ILambda_30_0, Initial residual = 3.03507625314e-16, Final residual = 5.59219820582e-61, No Iterations 60
DILUPBiCGStab:  Solving for ILambda_31_0, Initial residual = 2.3805270306e-16, Final residual = 1.73790497369e-61, No Iterations 41
DILUPBiCGStab:  Solving for ILambda_32_0, Initial residual = 8.14272194422e-16, Final residual = 4.91290058289e-73, No Iterations 2
DILUPBiCGStab:  Solving for ILambda_33_0, Initial residual = 8.31775136246e-16, Final residual = 4.74929594853e-74, No Iterations 2
DILUPBiCGStab:  Solving for ILambda_34_0, Initial residual = 7.60017431474e-16, Final residual = 5.18296238222e-74, No Iterations 2
DILUPBiCGStab:  Solving for ILambda_35_0, Initial residual = 7.11446886758e-16, Final residual = 7.12960347161e-74, No Iterations 2
DILUPBiCGStab:  Solving for ILambda_36_0, Initial residual = 7.37848820939e-16, Final residual = 1.88555378213e-73, No Iterations 2
DILUPBiCGStab:  Solving for ILambda_37_0, Initial residual = 7.75243761068e-16, Final residual = 6.45120947869e-72, No Iterations 2
DILUPBiCGStab:  Solving for ILambda_38_0, Initial residual = 9.56374473488e-16, Final residual = 4.26400360794e-73, No Iterations 2
DILUPBiCGStab:  Solving for ILambda_39_0, Initial residual = 9.22904996828e-16, Final residual = 1.24970130541e-73, No Iterations 2
DILUPBiCGStab:  Solving for ILambda_40_0, Initial residual = 1.07673645845e-15, Final residual = 5.76380789947e-61, No Iterations 40
DILUPBiCGStab:  Solving for ILambda_41_0, Initial residual = 1.47984770228e-15, Final residual = 2.59757375191e-61, No Iterations 61
DILUPBiCGStab:  Solving for ILambda_42_0, Initial residual = 1.66504850498e-15, Final residual = 7.37306223716e-61, No Iterations 73
DILUPBiCGStab:  Solving for ILambda_43_0, Initial residual = 1.91376389369e-15, Final residual = 6.73591016123e-61, No Iterations 77
DILUPBiCGStab:  Solving for ILambda_44_0, Initial residual = 1.82253290228e-15, Final residual = 3.07365641895e-61, No Iterations 80
DILUPBiCGStab:  Solving for ILambda_45_0, Initial residual = 1.74340699519e-15, Final residual = 6.63778139106e-62, No Iterations 73
DILUPBiCGStab:  Solving for ILambda_46_0, Initial residual = 1.66655686734e-15, Final residual = 4.39940042422e-62, No Iterations 61
DILUPBiCGStab:  Solving for ILambda_47_0, Initial residual = 1.17106679959e-15, Final residual = 3.34654249297e-61, No Iterations 40
DILUPBiCGStab:  Solving for ILambda_48_0, Initial residual = 8.98970254002e-16, Final residual = 2.67322093727e-61, No Iterations 22
DILUPBiCGStab:  Solving for ILambda_49_0, Initial residual = 9.61128794996e-16, Final residual = 1.13969177345e-61, No Iterations 22
DILUPBiCGStab:  Solving for ILambda_50_0, Initial residual = 7.62676114913e-16, Final residual = 6.92537221207e-61, No Iterations 24
DILUPBiCGStab:  Solving for ILambda_51_0, Initial residual = 7.58302455159e-16, Final residual = 9.34925306128e-61, No Iterations 22
DILUPBiCGStab:  Solving for ILambda_52_0, Initial residual = 7.67204345277e-16, Final residual = 2.06830305014e-61, No Iterations 23
DILUPBiCGStab:  Solving for ILambda_53_0, Initial residual = 7.70130613841e-16, Final residual = 3.20933611447e-62, No Iterations 20
DILUPBiCGStab:  Solving for ILambda_54_0, Initial residual = 8.4864607857e-16, Final residual = 4.4278774384e-62, No Iterations 23
DILUPBiCGStab:  Solving for ILambda_55_0, Initial residual = 8.22051680451e-16, Final residual = 3.96403196464e-62, No Iterations 22
DILUPBiCGStab:  Solving for ILambda_56_0, Initial residual = 1.21927127667e-15, Final residual = 9.31480577814e-61, No Iterations 40
DILUPBiCGStab:  Solving for ILambda_57_0, Initial residual = 1.62404131277e-15, Final residual = 5.96270922677e-61, No Iterations 59
DILUPBiCGStab:  Solving for ILambda_58_0, Initial residual = 1.66278587339e-15, Final residual = 6.69875381477e-61, No Iterations 71
DILUPBiCGStab:  Solving for ILambda_59_0, Initial residual = 1.88547372583e-15, Final residual = 9.58214831073e-61, No Iterations 77
DILUPBiCGStab:  Solving for ILambda_60_0, Initial residual = 1.90181948731e-15, Final residual = 7.82848360686e-61, No Iterations 79
DILUPBiCGStab:  Solving for ILambda_61_0, Initial residual = 1.68029296995e-15, Final residual = 3.76919378923e-61, No Iterations 73
DILUPBiCGStab:  Solving for ILambda_62_0, Initial residual = 1.54572996353e-15, Final residual = 1.62041520039e-61, No Iterations 59
DILUPBiCGStab:  Solving for ILambda_63_0, Initial residual = 1.12366305605e-15, Final residual = 2.36949214074e-62, No Iterations 41
DILUPBiCGStab:  Solving for ILambda_64_0, Initial residual = 8.2601535583e-16, Final residual = 9.94970213489e-61, No Iterations 23
DILUPBiCGStab:  Solving for ILambda_65_0, Initial residual = 8.28115747354e-16, Final residual = 2.89660760545e-61, No Iterations 24
DILUPBiCGStab:  Solving for ILambda_66_0, Initial residual = 6.91055560999e-16, Final residual = 2.83263074189e-61, No Iterations 21
DILUPBiCGStab:  Solving for ILambda_67_0, Initial residual = 6.66895559901e-16, Final residual = 1.49611897029e-61, No Iterations 21
DILUPBiCGStab:  Solving for ILambda_68_0, Initial residual = 6.9074907583e-16, Final residual = 8.61055060629e-61, No Iterations 22
DILUPBiCGStab:  Solving for ILambda_69_0, Initial residual = 7.23942738234e-16, Final residual = 5.90698793962e-61, No Iterations 24
DILUPBiCGStab:  Solving for ILambda_70_0, Initial residual = 1.07686406822e-15, Final residual = 6.13494425791e-62, No Iterations 24
DILUPBiCGStab:  Solving for ILambda_71_0, Initial residual = 1.03620971824e-15, Final residual = 5.16979943226e-61, No Iterations 23
DILUPBiCGStab:  Solving for ILambda_72_0, Initial residual = 1.10668812389e-15, Final residual = 2.22431012736e-61, No Iterations 41
DILUPBiCGStab:  Solving for ILambda_73_0, Initial residual = 1.46047935245e-15, Final residual = 8.13873946166e-61, No Iterations 56
DILUPBiCGStab:  Solving for ILambda_74_0, Initial residual = 1.62439694106e-15, Final residual = 3.62199739129e-61, No Iterations 69
DILUPBiCGStab:  Solving for ILambda_75_0, Initial residual = 1.70343073859e-15, Final residual = 4.11579357213e-61, No Iterations 75
DILUPBiCGStab:  Solving for ILambda_76_0, Initial residual = 1.61129525869e-15, Final residual = 3.21597891054e-61, No Iterations 74
DILUPBiCGStab:  Solving for ILambda_77_0, Initial residual = 1.53647965873e-15, Final residual = 4.71079134452e-61, No Iterations 74
DILUPBiCGStab:  Solving for ILambda_78_0, Initial residual = 1.64507798706e-15, Final residual = 5.85089814023e-61, No Iterations 60
DILUPBiCGStab:  Solving for ILambda_79_0, Initial residual = 1.25237313432e-15, Final residual = 2.49780518194e-61, No Iterations 38
DILUPBiCGStab:  Solving for ILambda_80_0, Initial residual = 1.03598922471e-15, Final residual = 1.02463720885e-73, No Iterations 2
DILUPBiCGStab:  Solving for ILambda_81_0, Initial residual = 1.07259634461e-15, Final residual = 7.32216295053e-74, No Iterations 2
DILUPBiCGStab:  Solving for ILambda_82_0, Initial residual = 7.00291663538e-16, Final residual = 5.12644357227e-71, No Iterations 2
DILUPBiCGStab:  Solving for ILambda_83_0, Initial residual = 6.07890743324e-16, Final residual = 1.66925045148e-72, No Iterations 2
DILUPBiCGStab:  Solving for ILambda_84_0, Initial residual = 5.94035648057e-16, Final residual = 2.19376423739e-71, No Iterations 2
DILUPBiCGStab:  Solving for ILambda_85_0, Initial residual = 6.84477652514e-16, Final residual = 1.53472531086e-68, No Iterations 2
DILUPBiCGStab:  Solving for ILambda_86_0, Initial residual = 8.4037525074e-16, Final residual = 4.98359360347e-73, No Iterations 2
DILUPBiCGStab:  Solving for ILambda_87_0, Initial residual = 8.05546123752e-16, Final residual = 3.95337613e-71, No Iterations 2
DILUPBiCGStab:  Solving for ILambda_88_0, Initial residual = 1.26633487029e-15, Final residual = 2.78958615007e-61, No Iterations 39
DILUPBiCGStab:  Solving for ILambda_89_0, Initial residual = 1.65926631691e-15, Final residual = 6.13485613325e-61, No Iterations 59
DILUPBiCGStab:  Solving for ILambda_90_0, Initial residual = 1.55493134149e-15, Final residual = 8.57197609394e-61, No Iterations 70
DILUPBiCGStab:  Solving for ILambda_91_0, Initial residual = 1.25276949013e-15, Final residual = 8.16059061384e-61, No Iterations 74
DILUPBiCGStab:  Solving for ILambda_92_0, Initial residual = 1.74388908684e-15, Final residual = 5.27213130151e-61, No Iterations 80
DILUPBiCGStab:  Solving for ILambda_93_0, Initial residual = 1.66291739575e-15, Final residual = 2.75279836486e-61, No Iterations 71
DILUPBiCGStab:  Solving for ILambda_94_0, Initial residual = 1.47584824919e-15, Final residual = 6.91529179048e-61, No Iterations 60
DILUPBiCGStab:  Solving for ILambda_95_0, Initial residual = 1.08852620222e-15, Final residual = 8.268185383e-61, No Iterations 40
DILUPBiCGStab:  Solving for ILambda_96_0, Initial residual = 1.69308435114e-16, Final residual = 4.75894402105e-61, No Iterations 16
DILUPBiCGStab:  Solving for ILambda_97_0, Initial residual = 1.69926158432e-16, Final residual = 1.97425487521e-61, No Iterations 19
DILUPBiCGStab:  Solving for ILambda_98_0, Initial residual = 1.67114949424e-16, Final residual = 7.37371705133e-62, No Iterations 19
DILUPBiCGStab:  Solving for ILambda_99_0, Initial residual = 1.8966163922e-16, Final residual = 2.62050808524e-61, No Iterations 19
DILUPBiCGStab:  Solving for ILambda_100_0, Initial residual = 1.87186907899e-16, Final residual = 2.50923844809e-62, No Iterations 18
DILUPBiCGStab:  Solving for ILambda_101_0, Initial residual = 1.92607062944e-16, Final residual = 1.59154110489e-61, No Iterations 19
DILUPBiCGStab:  Solving for ILambda_102_0, Initial residual = 1.94460538911e-16, Final residual = 8.55267746933e-62, No Iterations 18
DILUPBiCGStab:  Solving for ILambda_103_0, Initial residual = 1.82533831403e-16, Final residual = 1.7615653742e-61, No Iterations 19
DILUPBiCGStab:  Solving for ILambda_104_0, Initial residual = 2.20859025743e-16, Final residual = 4.62581596368e-61, No Iterations 41
DILUPBiCGStab:  Solving for ILambda_105_0, Initial residual = 3.17285224222e-16, Final residual = 8.89002940927e-61, No Iterations 57
DILUPBiCGStab:  Solving for ILambda_106_0, Initial residual = 3.35888111191e-16, Final residual = 7.57883153253e-61, No Iterations 66
DILUPBiCGStab:  Solving for ILambda_107_0, Initial residual = 3.03206504224e-16, Final residual = 2.84108949176e-61, No Iterations 73
DILUPBiCGStab:  Solving for ILambda_108_0, Initial residual = 3.17548570621e-16, Final residual = 7.09853664118e-61, No Iterations 77
DILUPBiCGStab:  Solving for ILambda_109_0, Initial residual = 3.48228183734e-16, Final residual = 2.22143847713e-61, No Iterations 65
DILUPBiCGStab:  Solving for ILambda_110_0, Initial residual = 3.17428310234e-16, Final residual = 8.49983933605e-61, No Iterations 59
DILUPBiCGStab:  Solving for ILambda_111_0, Initial residual = 2.27676252999e-16, Final residual = 3.33528587452e-62, No Iterations 40
DILUPBiCGStab:  Solving for ILambda_112_0, Initial residual = 1.85668898994e-16, Final residual = 2.45107321187e-73, No Iterations 2
DILUPBiCGStab:  Solving for ILambda_113_0, Initial residual = 1.92187122218e-16, Final residual = 1.7466786079e-61, No Iterations 2
DILUPBiCGStab:  Solving for ILambda_114_0, Initial residual = 1.89379564086e-16, Final residual = 1.85012110858e-73, No Iterations 2
DILUPBiCGStab:  Solving for ILambda_115_0, Initial residual = 1.87039606321e-16, Final residual = 3.85301571878e-61, No Iterations 2
DILUPBiCGStab:  Solving for ILambda_116_0, Initial residual = 1.89078172332e-16, Final residual = 8.41458704017e-61, No Iterations 2
DILUPBiCGStab:  Solving for ILambda_117_0, Initial residual = 1.65826343145e-16, Final residual = 3.06903497412e-61, No Iterations 2
DILUPBiCGStab:  Solving for ILambda_118_0, Initial residual = 1.68838914082e-16, Final residual = 1.29257196583e-61, No Iterations 2
DILUPBiCGStab:  Solving for ILambda_119_0, Initial residual = 1.61393857647e-16, Final residual = 1.47910883197e-61, No Iterations 2
DILUPBiCGStab:  Solving for ILambda_120_0, Initial residual = 2.28767139552e-16, Final residual = 3.16598768621e-61, No Iterations 40
DILUPBiCGStab:  Solving for ILambda_121_0, Initial residual = 3.05168670855e-16, Final residual = 8.28192111442e-62, No Iterations 58
DILUPBiCGStab:  Solving for ILambda_122_0, Initial residual = 3.54506727431e-16, Final residual = 7.42544492151e-61, No Iterations 67
DILUPBiCGStab:  Solving for ILambda_123_0, Initial residual = 2.92047424188e-16, Final residual = 7.32618062809e-61, No Iterations 76
DILUPBiCGStab:  Solving for ILambda_124_0, Initial residual = 3.05655487674e-16, Final residual = 4.45963266798e-61, No Iterations 78
DILUPBiCGStab:  Solving for ILambda_125_0, Initial residual = 3.32377874292e-16, Final residual = 8.7607795673e-61, No Iterations 69
DILUPBiCGStab:  Solving for ILambda_126_0, Initial residual = 3.00500116912e-16, Final residual = 2.47237534178e-61, No Iterations 58
DILUPBiCGStab:  Solving for ILambda_127_0, Initial residual = 2.27535172838e-16, Final residual = 2.27837272056e-61, No Iterations 40
min/max(T) = 1000, 1000
PIMPLE: iteration 3
Radiation solver iter: 0
DILUPBiCGStab:  Solving for ILambda_0_0, Initial residual = 1.65611578503e-16, Final residual = 3.8499031914e-61, No Iterations 2
DILUPBiCGStab:  Solving for ILambda_1_0, Initial residual = 1.75240588625e-16, Final residual = 1.13806373099e-61, No Iterations 2
DILUPBiCGStab:  Solving for ILambda_2_0, Initial residual = 1.64334525765e-16, Final residual = 3.23868299665e-61, No Iterations 2
DILUPBiCGStab:  Solving for ILambda_3_0, Initial residual = 1.88977912632e-16, Final residual = 7.09706082496e-62, No Iterations 2
DILUPBiCGStab:  Solving for ILambda_4_0, Initial residual = 1.88766848948e-16, Final residual = 2.74239227751e-61, No Iterations 2
DILUPBiCGStab:  Solving for ILambda_5_0, Initial residual = 1.8596680572e-16, Final residual = 3.24602250652e-61, No Iterations 2
DILUPBiCGStab:  Solving for ILambda_6_0, Initial residual = 1.92690724159e-16, Final residual = 4.49046241292e-61, No Iterations 2
DILUPBiCGStab:  Solving for ILambda_7_0, Initial residual = 1.81377040626e-16, Final residual = 5.29549572208e-62, No Iterations 2
DILUPBiCGStab:  Solving for ILambda_8_0, Initial residual = 1.72052928444e-16, Final residual = 1.82937991247e-61, No Iterations 39
DILUPBiCGStab:  Solving for ILambda_9_0, Initial residual = 2.53879698407e-16, Final residual = 5.59102988309e-62, No Iterations 61
DILUPBiCGStab:  Solving for ILambda_10_0, Initial residual = 3.2108973552e-16, Final residual = 3.0381825974e-61, No Iterations 68
DILUPBiCGStab:  Solving for ILambda_11_0, Initial residual = 2.8015119804e-16, Final residual = 3.67925321396e-61, No Iterations 82
DILUPBiCGStab:  Solving for ILambda_12_0, Initial residual = 2.64033068959e-16, Final residual = 4.30862775231e-61, No Iterations 76
DILUPBiCGStab:  Solving for ILambda_13_0, Initial residual = 3.16108071346e-16, Final residual = 5.25541752855e-61, No Iterations 71
DILUPBiCGStab:  Solving for ILambda_14_0, Initial residual = 2.67916563667e-16, Final residual = 4.78844551255e-61, No Iterations 57
DILUPBiCGStab:  Solving for ILambda_15_0, Initial residual = 2.15815903784e-16, Final residual = 4.00129776435e-61, No Iterations 39
DILUPBiCGStab:  Solving for ILambda_16_0, Initial residual = 1.78897794114e-16, Final residual = 4.74488486153e-61, No Iterations 18
DILUPBiCGStab:  Solving for ILambda_17_0, Initial residual = 1.90051763565e-16, Final residual = 3.97152988417e-62, No Iterations 18
DILUPBiCGStab:  Solving for ILambda_18_0, Initial residual = 1.82500666594e-16, Final residual = 5.17184261343e-62, No Iterations 19
DILUPBiCGStab:  Solving for ILambda_19_0, Initial residual = 1.83614783047e-16, Final residual = 7.83989647984e-61, No Iterations 19
DILUPBiCGStab:  Solving for ILambda_20_0, Initial residual = 1.86818528973e-16, Final residual = 3.00434263744e-61, No Iterations 18
DILUPBiCGStab:  Solving for ILambda_21_0, Initial residual = 1.61594577915e-16, Final residual = 3.54890095213e-61, No Iterations 17
DILUPBiCGStab:  Solving for ILambda_22_0, Initial residual = 1.7601842146e-16, Final residual = 9.27681012936e-61, No Iterations 18
DILUPBiCGStab:  Solving for ILambda_23_0, Initial residual = 1.65948286438e-16, Final residual = 8.69630015266e-62, No Iterations 18
DILUPBiCGStab:  Solving for ILambda_24_0, Initial residual = 2.1268605931e-16, Final residual = 5.97370053155e-61, No Iterations 38
DILUPBiCGStab:  Solving for ILambda_25_0, Initial residual = 2.86262078104e-16, Final residual = 7.37628768684e-61, No Iterations 58
DILUPBiCGStab:  Solving for ILambda_26_0, Initial residual = 2.96879109558e-16, Final residual = 2.03774128599e-62, No Iterations 74
DILUPBiCGStab:  Solving for ILambda_27_0, Initial residual = 2.74324567598e-16, Final residual = 2.8045421074e-61, No Iterations 80
DILUPBiCGStab:  Solving for ILambda_28_0, Initial residual = 3.18719361621e-16, Final residual = 2.79505031651e-61, No Iterations 77
DILUPBiCGStab:  Solving for ILambda_29_0, Initial residual = 2.84292513582e-16, Final residual = 3.11388335376e-61, No Iterations 70
DILUPBiCGStab:  Solving for ILambda_30_0, Initial residual = 2.09882671432e-16, Final residual = 9.38471661594e-61, No Iterations 59
DILUPBiCGStab:  Solving for ILambda_31_0, Initial residual = 1.80221144871e-16, Final residual = 2.70967407402e-61, No Iterations 41
DILUPBiCGStab:  Solving for ILambda_32_0, Initial residual = 8.24854833431e-16, Final residual = 5.54658769852e-73, No Iterations 2
DILUPBiCGStab:  Solving for ILambda_33_0, Initial residual = 8.20975130683e-16, Final residual = 3.14154151811e-74, No Iterations 2
DILUPBiCGStab:  Solving for ILambda_34_0, Initial residual = 7.48110613448e-16, Final residual = 2.22290997651e-74, No Iterations 2
DILUPBiCGStab:  Solving for ILambda_35_0, Initial residual = 6.82767053638e-16, Final residual = 3.1170079611e-74, No Iterations 2
DILUPBiCGStab:  Solving for ILambda_36_0, Initial residual = 6.9740181045e-16, Final residual = 1.59816165511e-73, No Iterations 2
DILUPBiCGStab:  Solving for ILambda_37_0, Initial residual = 7.71883296664e-16, Final residual = 7.68797087977e-74, No Iterations 2
DILUPBiCGStab:  Solving for ILambda_38_0, Initial residual = 9.52508797971e-16, Final residual = 4.05115968194e-74, No Iterations 2
DILUPBiCGStab:  Solving for ILambda_39_0, Initial residual = 9.22767426879e-16, Final residual = 1.79040571835e-73, No Iterations 2
DILUPBiCGStab:  Solving for ILambda_40_0, Initial residual = 1.03521915031e-15, Final residual = 1.95461709306e-61, No Iterations 40
DILUPBiCGStab:  Solving for ILambda_41_0, Initial residual = 1.16253350965e-15, Final residual = 5.90070083232e-61, No Iterations 61
DILUPBiCGStab:  Solving for ILambda_42_0, Initial residual = 9.929337486e-16, Final residual = 1.96512257056e-61, No Iterations 68
DILUPBiCGStab:  Solving for ILambda_43_0, Initial residual = 1.53785041432e-15, Final residual = 7.70708742878e-61, No Iterations 74
DILUPBiCGStab:  Solving for ILambda_44_0, Initial residual = 1.32888084135e-15, Final residual = 4.46713335035e-61, No Iterations 72
DILUPBiCGStab:  Solving for ILambda_45_0, Initial residual = 1.21483626034e-15, Final residual = 1.93408912355e-61, No Iterations 72
DILUPBiCGStab:  Solving for ILambda_46_0, Initial residual = 1.31796465706e-15, Final residual = 8.3152315622e-61, No Iterations 59
DILUPBiCGStab:  Solving for ILambda_47_0, Initial residual = 1.02503317556e-15, Final residual = 5.29654564934e-61, No Iterations 38
DILUPBiCGStab:  Solving for ILambda_48_0, Initial residual = 8.99944697351e-16, Final residual = 1.19091204067e-61, No Iterations 23
DILUPBiCGStab:  Solving for ILambda_49_0, Initial residual = 9.48907105326e-16, Final residual = 1.30098586738e-61, No Iterations 21
DILUPBiCGStab:  Solving for ILambda_50_0, Initial residual = 7.0860549872e-16, Final residual = 4.16877012884e-61, No Iterations 22
DILUPBiCGStab:  Solving for ILambda_51_0, Initial residual = 7.36929431013e-16, Final residual = 1.03772049879e-61, No Iterations 23
DILUPBiCGStab:  Solving for ILambda_52_0, Initial residual = 7.07335337594e-16, Final residual = 4.35912714503e-61, No Iterations 22
DILUPBiCGStab:  Solving for ILambda_53_0, Initial residual = 7.70952816104e-16, Final residual = 8.38806362407e-61, No Iterations 22
DILUPBiCGStab:  Solving for ILambda_54_0, Initial residual = 8.47283270049e-16, Final residual = 7.945574668e-62, No Iterations 21
DILUPBiCGStab:  Solving for ILambda_55_0, Initial residual = 8.10118058993e-16, Final residual = 6.90559962246e-61, No Iterations 20
DILUPBiCGStab:  Solving for ILambda_56_0, Initial residual = 9.65222595669e-16, Final residual = 7.30750408247e-61, No Iterations 41
[...]
DILUPBiCGStab:  Solving for ILambda_108_0, Initial residual = 2.97604921214e-16, Final residual = 4.94045730409e-61, No Iterations 79
DILUPBiCGStab:  Solving for ILambda_109_0, Initial residual = 3.4340457887e-16, Final residual = 3.49221212355e-61, No Iterations 69
DILUPBiCGStab:  Solving for ILambda_110_0, Initial residual = 2.39454729633e-16, Final residual = 2.87598397064e-61, No Iterations 59
DILUPBiCGStab:  Solving for ILambda_111_0, Initial residual = 2.17490472575e-16, Final residual = 7.0186257854e-62, No Iterations 40
DILUPBiCGStab:  Solving for ILambda_112_0, Initial residual = 1.81187278461e-16, Final residual = 6.00269237679e-61, No Iterations 2
DILUPBiCGStab:  Solving for ILambda_113_0, Initial residual = 1.89804554985e-16, Final residual = 3.01249309644e-74, No Iterations 2
DILUPBiCGStab:  Solving for ILambda_114_0, Initial residual = 1.89316671773e-16, Final residual = 1.62719182735e-74, No Iterations 2
DILUPBiCGStab:  Solving for ILambda_115_0, Initial residual = 1.84984025269e-16, Final residual = 7.8932609236e-61, No Iterations 2
DILUPBiCGStab:  Solving for ILambda_116_0, Initial residual = 1.92321723656e-16, Final residual = 7.6294930823e-61, No Iterations 2
DILUPBiCGStab:  Solving for ILambda_117_0, Initial residual = 1.69228450666e-16, Final residual = 1.33281085285e-74, No Iterations 2
DILUPBiCGStab:  Solving for ILambda_118_0, Initial residual = 1.70253448015e-16, Final residual = 4.09304159275e-61, No Iterations 2
DILUPBiCGStab:  Solving for ILambda_119_0, Initial residual = 1.61181576617e-16, Final residual = 1.13963120269e-61, No Iterations 2
DILUPBiCGStab:  Solving for ILambda_120_0, Initial residual = 2.13766290165e-16, Final residual = 4.12578297844e-61, No Iterations 37
DILUPBiCGStab:  Solving for ILambda_121_0, Initial residual = 2.4553411825e-16, Final residual = 7.62502184736e-61, No Iterations 57
DILUPBiCGStab:  Solving for ILambda_122_0, Initial residual = 2.67156237202e-16, Final residual = 6.80529465521e-61, No Iterations 70
DILUPBiCGStab:  Solving for ILambda_123_0, Initial residual = 3.2474147507e-16, Final residual = 3.12275933425e-61, No Iterations 77
DILUPBiCGStab:  Solving for ILambda_124_0, Initial residual = 3.3854040093e-16, Final residual = 4.89501551991e-61, No Iterations 79
DILUPBiCGStab:  Solving for ILambda_125_0, Initial residual = 3.49397564896e-16, Final residual = 8.14837546564e-61, No Iterations 67
DILUPBiCGStab:  Solving for ILambda_126_0, Initial residual = 2.54134836331e-16, Final residual = 6.50507578022e-61, No Iterations 56
DILUPBiCGStab:  Solving for ILambda_127_0, Initial residual = 1.94262259722e-16, Final residual = 6.68153328854e-61, No Iterations 38
min/max(T) = 1000, 1000
PIMPLE: iteration 10
Radiation solver iter: 0
DILUPBiCGStab:  Solving for ILambda_0_0, Initial residual = 1.64646676659e-16, Final residual = 1.67044076107e-61, No Iterations 2
DILUPBiCGStab:  Solving for ILambda_1_0, Initial residual = 1.73824964318e-16, Final residual = 3.07281837102e-61, No Iterations 2
DILUPBiCGStab:  Solving for ILambda_2_0, Initial residual = 1.6679606454e-16, Final residual = 2.25226295299e-61, No Iterations 2
DILUPBiCGStab:  Solving for ILambda_3_0, Initial residual = 1.87507589756e-16, Final residual = 5.01858131315e-61, No Iterations 2
DILUPBiCGStab:  Solving for ILambda_4_0, Initial residual = 1.85485152311e-16, Final residual = 1.69601781896e-61, No Iterations 2
DILUPBiCGStab:  Solving for ILambda_5_0, Initial residual = 1.83526682737e-16, Final residual = 2.03946492023e-75, No Iterations 2
DILUPBiCGStab:  Solving for ILambda_6_0, Initial residual = 1.97535732035e-16, Final residual = 4.19563173306e-61, No Iterations 2
DILUPBiCGStab:  Solving for ILambda_7_0, Initial residual = 1.77661890259e-16, Final residual = 6.04885276471e-62, No Iterations 2
DILUPBiCGStab:  Solving for ILambda_8_0, Initial residual = 1.81141159445e-16, Final residual = 2.00035749063e-61, No Iterations 40
DILUPBiCGStab:  Solving for ILambda_9_0, Initial residual = 2.75579359978e-16, Final residual = 9.53170179688e-61, No Iterations 58
DILUPBiCGStab:  Solving for ILambda_10_0, Initial residual = 2.73046572076e-16, Final residual = 6.02488122245e-61, No Iterations 70
DILUPBiCGStab:  Solving for ILambda_11_0, Initial residual = 2.91325043364e-16, Final residual = 4.90906019568e-61, No Iterations 75
DILUPBiCGStab:  Solving for ILambda_12_0, Initial residual = 2.59739503992e-16, Final residual = 4.17529264285e-61, No Iterations 78
DILUPBiCGStab:  Solving for ILambda_13_0, Initial residual = 2.8959104135e-16, Final residual = 4.18051592703e-61, No Iterations 73
DILUPBiCGStab:  Solving for ILambda_14_0, Initial residual = 2.68671816352e-16, Final residual = 5.55531479969e-61, No Iterations 58
DILUPBiCGStab:  Solving for ILambda_15_0, Initial residual = 1.90400439065e-16, Final residual = 5.64715489449e-61, No Iterations 38
DILUPBiCGStab:  Solving for ILambda_16_0, Initial residual = 1.78624192019e-16, Final residual = 6.01436789365e-62, No Iterations 17
DILUPBiCGStab:  Solving for ILambda_17_0, Initial residual = 1.87825466592e-16, Final residual = 5.13054036949e-62, No Iterations 18
DILUPBiCGStab:  Solving for ILambda_18_0, Initial residual = 1.84258958843e-16, Final residual = 2.20057556281e-61, No Iterations 19
DILUPBiCGStab:  Solving for ILambda_19_0, Initial residual = 1.87486173882e-16, Final residual = 2.1781746358e-61, No Iterations 20
DILUPBiCGStab:  Solving for ILambda_20_0, Initial residual = 1.88491195814e-16, Final residual = 6.30583317888e-62, No Iterations 20
DILUPBiCGStab:  Solving for ILambda_21_0, Initial residual = 1.66390645819e-16, Final residual = 7.07819642199e-62, No Iterations 18
DILUPBiCGStab:  Solving for ILambda_22_0, Initial residual = 1.69854358764e-16, Final residual = 4.31407232498e-61, No Iterations 18
DILUPBiCGStab:  Solving for ILambda_23_0, Initial residual = 1.6296629317e-16, Final residual = 5.61888964779e-61, No Iterations 18
DILUPBiCGStab:  Solving for ILambda_24_0, Initial residual = 1.95018315188e-16, Final residual = 4.75330886105e-62, No Iterations 39
DILUPBiCGStab:  Solving for ILambda_25_0, Initial residual = 2.2960648366e-16, Final residual = 1.14381794494e-61, No Iterations 59
DILUPBiCGStab:  Solving for ILambda_26_0, Initial residual = 3.21028278604e-16, Final residual = 2.35139198844e-61, No Iterations 70
DILUPBiCGStab:  Solving for ILambda_27_0, Initial residual = 2.9437256285e-16, Final residual = 8.51073413468e-61, No Iterations 79
DILUPBiCGStab:  Solving for ILambda_28_0, Initial residual = 2.8200321911e-16, Final residual = 4.52192177991e-61, No Iterations 71
DILUPBiCGStab:  Solving for ILambda_29_0, Initial residual = 2.17579579274e-16, Final residual = 6.04135375587e-61, No Iterations 69
DILUPBiCGStab:  Solving for ILambda_30_0, Initial residual = 2.46073768906e-16, Final residual = 6.47351399464e-61, No Iterations 60
DILUPBiCGStab:  Solving for ILambda_31_0, Initial residual = 1.82610147298e-16, Final residual = 3.05642039414e-62, No Iterations 42
DILUPBiCGStab:  Solving for ILambda_32_0, Initial residual = 8.1492034794e-16, Final residual = 3.88634663173e-73, No Iterations 2
DILUPBiCGStab:  Solving for ILambda_33_0, Initial residual = 8.2783579052e-16, Final residual = 5.50657504003e-74, No Iterations 2
DILUPBiCGStab:  Solving for ILambda_34_0, Initial residual = 7.65872840624e-16, Final residual = 1.9969963935e-74, No Iterations 2
DILUPBiCGStab:  Solving for ILambda_35_0, Initial residual = 7.17409879267e-16, Final residual = 9.83378042023e-74, No Iterations 2
DILUPBiCGStab:  Solving for ILambda_36_0, Initial residual = 7.30028309969e-16, Final residual = 4.4346133077e-73, No Iterations 2
DILUPBiCGStab:  Solving for ILambda_37_0, Initial residual = 7.60583374268e-16, Final residual = 5.89912889231e-74, No Iterations 2
DILUPBiCGStab:  Solving for ILambda_38_0, Initial residual = 9.54324495804e-16, Final residual = 8.99978297744e-74, No Iterations 2
DILUPBiCGStab:  Solving for ILambda_39_0, Initial residual = 9.12554298914e-16, Final residual = 1.6432883102e-73, No Iterations 2
DILUPBiCGStab:  Solving for ILambda_40_0, Initial residual = 8.72400252327e-16, Final residual = 2.80550621157e-61, No Iterations 40
DILUPBiCGStab:  Solving for ILambda_41_0, Initial residual = 1.18198892273e-15, Final residual = 7.09021684751e-61, No Iterations 59
DILUPBiCGStab:  Solving for ILambda_42_0, Initial residual = 1.21682092061e-15, Final residual = 1.00227692172e-61, No Iterations 70
DILUPBiCGStab:  Solving for ILambda_43_0, Initial residual = 9.29301143855e-16, Final residual = 8.49577285958e-61, No Iterations 76
DILUPBiCGStab:  Solving for ILambda_44_0, Initial residual = 1.18790146987e-15, Final residual = 6.81239178335e-61, No Iterations 74
DILUPBiCGStab:  Solving for ILambda_45_0, Initial residual = 1.19238390783e-15, Final residual = 9.67040291091e-61, No Iterations 72
DILUPBiCGStab:  Solving for ILambda_46_0, Initial residual = 1.35805613228e-15, Final residual = 4.92463147393e-61, No Iterations 60
DILUPBiCGStab:  Solving for ILambda_47_0, Initial residual = 1.01121644034e-15, Final residual = 3.58607478054e-61, No Iterations 39
DILUPBiCGStab:  Solving for ILambda_48_0, Initial residual = 8.91823933425e-16, Final residual = 1.16595066103e-61, No Iterations 23
DILUPBiCGStab:  Solving for ILambda_49_0, Initial residual = 9.54873815184e-16, Final residual = 5.27079622658e-61, No Iterations 23
DILUPBiCGStab:  Solving for ILambda_50_0, Initial residual = 7.44810252931e-16, Final residual = 1.35448459098e-61, No Iterations 23
DILUPBiCGStab:  Solving for ILambda_51_0, Initial residual = 6.37470906098e-16, Final residual = 1.06968383719e-61, No Iterations 25
DILUPBiCGStab:  Solving for ILambda_52_0, Initial residual = 7.56674639026e-16, Final residual = 7.71239264759e-61, No Iterations 24
DILUPBiCGStab:  Solving for ILambda_53_0, Initial residual = 7.59854976759e-16, Final residual = 7.41371900819e-62, No Iterations 22
DILUPBiCGStab:  Solving for ILambda_54_0, Initial residual = 8.41936416332e-16, Final residual = 6.83957830832e-61, No Iterations 22
DILUPBiCGStab:  Solving for ILambda_55_0, Initial residual = 8.11984104601e-16, Final residual = 2.74432058998e-61, No Iterations 22
DILUPBiCGStab:  Solving for ILambda_56_0, Initial residual = 9.82560093315e-16, Final residual = 1.30101642962e-61, No Iterations 39
DILUPBiCGStab:  Solving for ILambda_57_0, Initial residual = 1.11473517785e-15, Final residual = 2.4709047874e-61, No Iterations 59
DILUPBiCGStab:  Solving for ILambda_58_0, Initial residual = 1.36350720168e-15, Final residual = 5.32644845988e-61, No Iterations 73
DILUPBiCGStab:  Solving for ILambda_59_0, Initial residual = 1.10522400197e-15, Final residual = 5.37647643158e-61, No Iterations 76
DILUPBiCGStab:  Solving for ILambda_60_0, Initial residual = 1.26562785562e-15, Final residual = 1.9304323238e-61, No Iterations 76
DILUPBiCGStab:  Solving for ILambda_61_0, Initial residual = 1.19539087914e-15, Final residual = 3.31452199304e-61, No Iterations 70
DILUPBiCGStab:  Solving for ILambda_62_0, Initial residual = 1.28756916797e-15, Final residual = 1.32138131941e-61, No Iterations 60
DILUPBiCGStab:  Solving for ILambda_63_0, Initial residual = 9.11716208575e-16, Final residual = 3.52256454018e-61, No Iterations 38
DILUPBiCGStab:  Solving for ILambda_64_0, Initial residual = 7.80732839842e-16, Final residual = 8.22526779696e-61, No Iterations 20
DILUPBiCGStab:  Solving for ILambda_65_0, Initial residual = 8.34241761791e-16, Final residual = 1.33741840782e-61, No Iterations 22
DILUPBiCGStab:  Solving for ILambda_66_0, Initial residual = 6.86733969029e-16, Final residual = 8.58819360888e-61, No Iterations 20
DILUPBiCGStab:  Solving for ILambda_67_0, Initial residual = 6.21905290219e-16, Final residual = 3.83172744899e-61, No Iterations 22
DILUPBiCGStab:  Solving for ILambda_68_0, Initial residual = 6.73676071431e-16, Final residual = 1.09075511144e-62, No Iterations 25
DILUPBiCGStab:  Solving for ILambda_69_0, Initial residual = 7.3242368174e-16, Final residual = 2.2143052943e-61, No Iterations 25
DILUPBiCGStab:  Solving for ILambda_70_0, Initial residual = 1.06743001574e-15, Final residual = 1.35401689403e-61, No Iterations 22
DILUPBiCGStab:  Solving for ILambda_71_0, Initial residual = 1.02123981267e-15, Final residual = 1.03745658428e-61, No Iterations 25
DILUPBiCGStab:  Solving for ILambda_72_0, Initial residual = 8.85249226279e-16, Final residual = 7.37031785902e-61, No Iterations 40
DILUPBiCGStab:  Solving for ILambda_73_0, Initial residual = 1.10189567727e-15, Final residual = 2.94945948046e-61, No Iterations 58
DILUPBiCGStab:  Solving for ILambda_74_0, Initial residual = 1.12062818713e-15, Final residual = 3.93404158154e-61, No Iterations 68
DILUPBiCGStab:  Solving for ILambda_75_0, Initial residual = 9.38941431834e-16, Final residual = 2.65142326831e-61, No Iterations 75
DILUPBiCGStab:  Solving for ILambda_76_0, Initial residual = 1.15118934446e-15, Final residual = 1.01569732641e-61, No Iterations 74
DILUPBiCGStab:  Solving for ILambda_77_0, Initial residual = 1.04932161191e-15, Final residual = 4.34906972743e-61, No Iterations 70
DILUPBiCGStab:  Solving for ILambda_78_0, Initial residual = 1.2144227797e-15, Final residual = 9.29677040714e-61, No Iterations 56
DILUPBiCGStab:  Solving for ILambda_79_0, Initial residual = 1.21627260629e-15, Final residual = 9.35115082268e-61, No Iterations 37
DILUPBiCGStab:  Solving for ILambda_80_0, Initial residual = 1.03229098598e-15, Final residual = 6.6615431771e-73, No Iterations 2
DILUPBiCGStab:  Solving for ILambda_81_0, Initial residual = 1.0780157775e-15, Final residual = 1.55519131462e-72, No Iterations 2
DILUPBiCGStab:  Solving for ILambda_82_0, Initial residual = 7.29711082313e-16, Final residual = 6.72225951433e-73, No Iterations 2
DILUPBiCGStab:  Solving for ILambda_83_0, Initial residual = 6.57877231302e-16, Final residual = 1.98102324414e-72, No Iterations 2
DILUPBiCGStab:  Solving for ILambda_84_0, Initial residual = 7.02870430607e-16, Final residual = 1.03424475856e-71, No Iterations 2
DILUPBiCGStab:  Solving for ILambda_85_0, Initial residual = 6.82713802292e-16, Final residual = 9.70911027478e-69, No Iterations 2
DILUPBiCGStab:  Solving for ILambda_86_0, Initial residual = 8.21654966459e-16, Final residual = 4.25807035856e-72, No Iterations 2
DILUPBiCGStab:  Solving for ILambda_87_0, Initial residual = 7.97539508504e-16, Final residual = 3.21528792863e-72, No Iterations 2
DILUPBiCGStab:  Solving for ILambda_88_0, Initial residual = 1.16146525516e-15, Final residual = 7.94276458889e-61, No Iterations 38
DILUPBiCGStab:  Solving for ILambda_89_0, Initial residual = 1.29856309251e-15, Final residual = 5.79084953915e-61, No Iterations 57
DILUPBiCGStab:  Solving for ILambda_90_0, Initial residual = 1.14086211456e-15, Final residual = 4.14544051625e-61, No Iterations 68
DILUPBiCGStab:  Solving for ILambda_91_0, Initial residual = 1.14650939623e-15, Final residual = 7.08056022022e-61, No Iterations 73
DILUPBiCGStab:  Solving for ILambda_92_0, Initial residual = 1.22165743216e-15, Final residual = 2.59065393532e-61, No Iterations 74
DILUPBiCGStab:  Solving for ILambda_93_0, Initial residual = 1.20836546966e-15, Final residual = 1.32626839097e-61, No Iterations 67
DILUPBiCGStab:  Solving for ILambda_94_0, Initial residual = 1.05058545443e-15, Final residual = 3.33704922981e-61, No Iterations 59
DILUPBiCGStab:  Solving for ILambda_95_0, Initial residual = 8.48361822903e-16, Final residual = 8.11341107235e-62, No Iterations 41
DILUPBiCGStab:  Solving for ILambda_96_0, Initial residual = 1.66429079142e-16, Final residual = 9.06049022329e-61, No Iterations 18
DILUPBiCGStab:  Solving for ILambda_97_0, Initial residual = 1.69098748901e-16, Final residual = 8.74873759963e-61, No Iterations 20
DILUPBiCGStab:  Solving for ILambda_98_0, Initial residual = 1.62401139913e-16, Final residual = 6.62963803221e-61, No Iterations 18
DILUPBiCGStab:  Solving for ILambda_99_0, Initial residual = 1.90097973202e-16, Final residual = 6.95585775881e-61, No Iterations 19
DILUPBiCGStab:  Solving for ILambda_100_0, Initial residual = 1.88219558036e-16, Final residual = 2.0115625982e-62, No Iterations 18
DILUPBiCGStab:  Solving for ILambda_101_0, Initial residual = 1.8776133071e-16, Final residual = 8.27144533616e-62, No Iterations 17
DILUPBiCGStab:  Solving for ILambda_102_0, Initial residual = 1.94230415703e-16, Final residual = 2.77700791157e-61, No Iterations 17
DILUPBiCGStab:  Solving for ILambda_103_0, Initial residual = 1.83076319945e-16, Final residual = 4.86932060073e-62, No Iterations 18
DILUPBiCGStab:  Solving for ILambda_104_0, Initial residual = 1.94305170933e-16, Final residual = 5.91461517533e-61, No Iterations 39
DILUPBiCGStab:  Solving for ILambda_105_0, Initial residual = 2.67056958624e-16, Final residual = 4.71108303762e-61, No Iterations 56
DILUPBiCGStab:  Solving for ILambda_106_0, Initial residual = 2.43386020288e-16, Final residual = 3.82932393363e-61, No Iterations 70
DILUPBiCGStab:  Solving for ILambda_107_0, Initial residual = 2.84187629811e-16, Final residual = 5.31286986653e-61, No Iterations 80
DILUPBiCGStab:  Solving for ILambda_108_0, Initial residual = 3.07219396922e-16, Final residual = 3.08879015659e-61, No Iterations 78
DILUPBiCGStab:  Solving for ILambda_109_0, Initial residual = 3.61136577877e-16, Final residual = 5.42040108196e-61, No Iterations 67
DILUPBiCGStab:  Solving for ILambda_110_0, Initial residual = 2.38947985945e-16, Final residual = 9.39866859957e-61, No Iterations 60
DILUPBiCGStab:  Solving for ILambda_111_0, Initial residual = 2.10282276326e-16, Final residual = 2.72801318532e-61, No Iterations 38
DILUPBiCGStab:  Solving for ILambda_112_0, Initial residual = 1.81030916955e-16, Final residual = 1.55798185239e-74, No Iterations 2
DILUPBiCGStab:  Solving for ILambda_113_0, Initial residual = 1.92668374466e-16, Final residual = 6.14887324901e-75, No Iterations 2
DILUPBiCGStab:  Solving for ILambda_114_0, Initial residual = 1.86193593781e-16, Final residual = 1.01761835354e-73, No Iterations 2
DILUPBiCGStab:  Solving for ILambda_115_0, Initial residual = 1.835969317e-16, Final residual = 2.94858089998e-61, No Iterations 2
DILUPBiCGStab:  Solving for ILambda_116_0, Initial residual = 1.86499603839e-16, Final residual = 1.10336668288e-61, No Iterations 2
DILUPBiCGStab:  Solving for ILambda_117_0, Initial residual = 1.66777443812e-16, Final residual = 1.32053140958e-74, No Iterations 2
DILUPBiCGStab:  Solving for ILambda_118_0, Initial residual = 1.6979633098e-16, Final residual = 4.82522904237e-61, No Iterations 2
DILUPBiCGStab:  Solving for ILambda_119_0, Initial residual = 1.63586282008e-16, Final residual = 7.70725877392e-62, No Iterations 2
DILUPBiCGStab:  Solving for ILambda_120_0, Initial residual = 1.91296278631e-16, Final residual = 2.58538561056e-61, No Iterations 39
DILUPBiCGStab:  Solving for ILambda_121_0, Initial residual = 2.52255840045e-16, Final residual = 5.89693714399e-61, No Iterations 60
DILUPBiCGStab:  Solving for ILambda_122_0, Initial residual = 2.62798649672e-16, Final residual = 1.27866386893e-61, No Iterations 69
DILUPBiCGStab:  Solving for ILambda_123_0, Initial residual = 2.88071957799e-16, Final residual = 4.47436945234e-61, No Iterations 77
DILUPBiCGStab:  Solving for ILambda_124_0, Initial residual = 2.85307810089e-16, Final residual = 3.05233363457e-61, No Iterations 77
DILUPBiCGStab:  Solving for ILambda_125_0, Initial residual = 3.58496616449e-16, Final residual = 6.05209204846e-61, No Iterations 68
DILUPBiCGStab:  Solving for ILambda_126_0, Initial residual = 2.27310359346e-16, Final residual = 2.45609852139e-61, No Iterations 60
DILUPBiCGStab:  Solving for ILambda_127_0, Initial residual = 1.75375027118e-16, Final residual = 2.61787020434e-61, No Iterations 40
min/max(T) = 1000, 1000
ExecutionTime = 315.91 s  ClockTime = 316 s

writeObjects writeObjects1.writeObjects write:
    writing object a
    writing object qem
End

